
     RDKit          3D

 45 47  0  0  0  0  0  0  0  0999 V2000
  -26.1570   28.6287   -4.3977 C   0  0  0  0  0  0  0  0  0  0  0  0
  -25.1794   27.8991   -5.7478 S   0  0  0  0  0  0  0  0  0  0  0  0
  -25.6206   29.1816   -6.9214 C   0  0  0  0  0  0  0  0  0  0  0  0
  -26.7882   29.0852   -7.6799 C   0  0  0  0  0  0  0  0  0  0  0  0
  -27.1067   30.0697   -8.5599 N   0  0  0  0  0  0  0  0  0  0  0  0
  -26.3059   31.1583   -8.7158 C   0  0  0  0  0  0  0  0  0  0  0  0
  -26.6664   32.1760   -9.6518 N   0  0  0  0  0  0  0  0  0  0  0  0
  -25.6819   33.1240  -10.1797 C   0  0  0  0  0  0  0  0  0  0  0  0
  -26.2959   34.1047  -11.2161 C   0  0  0  0  0  0  0  0  0  0  0  0
  -27.2892   35.0691  -10.5318 C   0  0  0  0  0  0  0  0  0  0  0  0
  -27.0495   33.3199  -12.3247 C   0  0  0  0  0  0  0  0  0  0  0  0
  -25.1427   34.8584  -11.9357 C   0  0  0  0  0  0  0  0  0  0  0  0
  -24.4144   35.7541  -11.0467 N   0  0  0  0  0  0  0  0  0  0  0  0
  -24.6529   37.1652  -11.0494 C   0  0  0  0  0  0  0  0  0  0  0  0
  -24.0564   38.0092  -10.1669 N   0  0  0  0  0  0  0  0  0  0  0  0
  -24.5645   39.1961  -10.5399 C   0  0  0  0  0  0  0  0  0  0  0  0
  -25.4130   39.0358  -11.5939 C   0  0  0  0  0  0  0  0  0  0  0  0
  -25.4607   37.7700  -11.9061 O   0  0  0  0  0  0  0  0  0  0  0  0
  -26.0804   40.1068  -12.1808 C   0  0  0  0  0  0  0  0  0  0  0  0
  -25.8496   41.3881  -11.6443 C   0  0  0  0  0  0  0  0  0  0  0  0
  -24.9688   41.5581  -10.5503 C   0  0  0  0  0  0  0  0  0  0  0  0
  -24.3120   40.4481   -9.9840 C   0  0  0  0  0  0  0  0  0  0  0  0
  -25.1652   31.2675   -7.9805 N   0  0  0  0  0  0  0  0  0  0  0  0
  -24.8107   30.3054   -7.0898 C   0  0  0  0  0  0  0  0  0  0  0  0
  -26.0230   28.0378   -3.4916 H   0  0  0  0  0  0  0  0  0  0  0  0
  -25.8225   29.6504   -4.2179 H   0  0  0  0  0  0  0  0  0  0  0  0
  -27.2112   28.6350   -4.6747 H   0  0  0  0  0  0  0  0  0  0  0  0
  -27.4589   28.2313   -7.5840 H   0  0  0  0  0  0  0  0  0  0  0  0
  -27.6318   32.2260   -9.9446 H   0  0  0  0  0  0  0  0  0  0  0  0
  -25.3714   33.7172   -9.3195 H   0  0  0  0  0  0  0  0  0  0  0  0
  -24.9539   32.5096  -10.7095 H   0  0  0  0  0  0  0  0  0  0  0  0
  -27.1962   34.9788   -9.4495 H   0  0  0  0  0  0  0  0  0  0  0  0
  -27.0663   36.0931  -10.8314 H   0  0  0  0  0  0  0  0  0  0  0  0
  -28.3062   34.8161  -10.8314 H   0  0  0  0  0  0  0  0  0  0  0  0
  -26.9339   32.2495  -12.1546 H   0  0  0  0  0  0  0  0  0  0  0  0
  -28.1077   33.5798  -12.2984 H   0  0  0  0  0  0  0  0  0  0  0  0
  -26.6357   33.5798  -13.2990 H   0  0  0  0  0  0  0  0  0  0  0  0
  -24.4098   34.1119  -12.2420 H   0  0  0  0  0  0  0  0  0  0  0  0
  -25.5982   35.5122  -12.6795 H   0  0  0  0  0  0  0  0  0  0  0  0
  -23.7232   35.3857  -10.4090 H   0  0  0  0  0  0  0  0  0  0  0  0
  -26.7540   39.9492  -13.0232 H   0  0  0  0  0  0  0  0  0  0  0  0
  -26.3546   42.2515  -12.0775 H   0  0  0  0  0  0  0  0  0  0  0  0
  -24.7947   42.5529  -10.1401 H   0  0  0  0  0  0  0  0  0  0  0  0
  -23.6291   40.5548   -9.1411 H   0  0  0  0  0  0  0  0  0  0  0  0
  -23.8908   30.4332   -6.5192 H   0  0  0  0  0  0  0  0  0  0  0  0
  1  2  1  0
  2  3  1  0
  3  4  2  0
  4  5  1  0
  5  6  2  0
  6  7  1  0
  7  8  1  0
  8  9  1  0
  9 10  1  0
  9 11  1  0
  9 12  1  0
 12 13  1  0
 13 14  1  0
 14 15  2  0
 15 16  1  0
 16 17  2  0
 17 18  1  0
 14 18  1  0
 17 19  1  0
 19 20  2  0
 20 21  1  0
 21 22  2  0
 16 22  1  0
  6 23  1  0
 23 24  2  0
  3 24  1  0
  1 25  1  0
  1 26  1  0
  1 27  1  0
  4 28  1  0
  7 29  1  0
  8 30  1  0
  8 31  1  0
 10 32  1  0
 10 33  1  0
 10 34  1  0
 11 35  1  0
 11 36  1  0
 11 37  1  0
 12 38  1  0
 12 39  1  0
 13 40  1  0
 19 41  1  0
 20 42  1  0
 21 43  1  0
 22 44  1  0
 24 45  1  0
M  END
>  <21666828|PCSK9_Human_KD_nM_PREFIX|1>  (1) 
>=

>  <21666828|PCSK9_Human_KD_nM_REMARKS|1>  (1) 
Range >= 2000 nM to < 20000 nM

>  <21666828|PCSK9_Human_KD_nM|1>  (1) 
2000

>  <CHROM.1>  (1) 
-86.48049356,-159.94265831,178.03566263,68.04915936,-67.02344946,-101.27098780
175.25799335

>  <COMPOUND_ID>  (1) 
Example_164

>  <EmbedRMS>  (1) 
0.10172324356807379

>  <GVK_ID>  (1) 
124889519

>  <ISOMER>  (1) 
None

>  <Kd_Range>  (1) 
>= 2000

>  <Name>  (1) 


>  <PAGE>  (1) 
77

>  <REFERENCE>  (1) 
WO 2020/150474 A1

>  <REF_ID>  (1) 
2133368

>  <RI>  (1) 
3.88083e+07

>  <Rbt.Current_Directory>  (1) 
/dev/shm/dwight/Example-164

>  <Rbt.Executable>  (1) 
rbdock ($Id: //depot/dev/client3/rdock/2013.1/src/exe/rbdock.cxx#4 $)

>  <Rbt.Library>  (1) 
libRbt.so (2013.1, Build901 2013/11/27)

>  <Rbt.Parameter_File>  (1) 
dock.prm

>  <Rbt.Receptor>  (1) 
receptor.prm

>  <SCORE>  (1) 
33.9366

>  <SCORE.INTER>  (1) 
39.5349

>  <SCORE.INTER.CONST>  (1) 
1

>  <SCORE.INTER.POLAR>  (1) 
-2.31699

>  <SCORE.INTER.REPUL>  (1) 
0

>  <SCORE.INTER.ROT>  (1) 
7

>  <SCORE.INTER.VDW>  (1) 
35.0127

>  <SCORE.INTER.norm>  (1) 
1.64729

>  <SCORE.INTRA>  (1) 
-5.5983

>  <SCORE.INTRA.DIHEDRAL>  (1) 
-2.04943

>  <SCORE.INTRA.DIHEDRAL.0>  (1) 
11.5608

>  <SCORE.INTRA.POLAR>  (1) 
0

>  <SCORE.INTRA.POLAR.0>  (1) 
0

>  <SCORE.INTRA.REPUL>  (1) 
0

>  <SCORE.INTRA.REPUL.0>  (1) 
0

>  <SCORE.INTRA.VDW>  (1) 
-4.57359

>  <SCORE.INTRA.VDW.0>  (1) 
5.56648

>  <SCORE.INTRA.norm>  (1) 
-0.233262

>  <SCORE.RESTR>  (1) 
0

>  <SCORE.RESTR.CAVITY>  (1) 
0

>  <SCORE.RESTR.norm>  (1) 
0

>  <SCORE.SYSTEM>  (1) 
0

>  <SCORE.SYSTEM.CONST>  (1) 
0

>  <SCORE.SYSTEM.DIHEDRAL>  (1) 
0

>  <SCORE.SYSTEM.norm>  (1) 
0

>  <SCORE.heavy>  (1) 
24

>  <SCORE.norm>  (1) 
1.41403

>  <TETHERED ATOMS>  (1) 
9,8,12,13,14,7,6

>  <_MOLCOUNT>  (1) 
1

$$$$
