
     RDKit          3D

 49 52  0  0  0  0  0  0  0  0999 V2000
  -26.0544   28.5900   -4.3797 C   0  0  0  0  0  0  0  0  0  0  0  0
  -25.2628   27.8264   -5.8294 S   0  0  0  0  0  0  0  0  0  0  0  0
  -25.6907   29.1798   -6.9258 C   0  0  0  0  0  0  0  0  0  0  0  0
  -26.8810   29.1604   -7.6541 C   0  0  0  0  0  0  0  0  0  0  0  0
  -27.1844   30.1931   -8.4827 N   0  0  0  0  0  0  0  0  0  0  0  0
  -26.3437   31.2540   -8.6195 C   0  0  0  0  0  0  0  0  0  0  0  0
  -26.6902   32.3247   -9.5018 N   0  0  0  0  0  0  0  0  0  0  0  0
  -25.6677   33.1100  -10.1933 C   0  0  0  0  0  0  0  0  0  0  0  0
  -26.2688   34.1348  -11.1850 C   0  0  0  0  0  0  0  0  0  0  0  0
  -27.1893   33.4638  -12.2276 C   0  0  0  0  0  0  0  0  0  0  0  0
  -25.1196   34.8326  -11.9436 C   0  0  0  0  0  0  0  0  0  0  0  0
  -24.4256   35.7916  -11.0941 N   0  0  0  0  0  0  0  0  0  0  0  0
  -24.6903   37.1981  -11.1565 C   0  0  0  0  0  0  0  0  0  0  0  0
  -24.1062   38.0831  -10.3129 N   0  0  0  0  0  0  0  0  0  0  0  0
  -24.5226   39.3482  -10.5757 C   0  0  0  0  0  0  0  0  0  0  0  0
  -25.4276   39.4699  -11.6156 C   0  0  0  0  0  0  0  0  0  0  0  0
  -25.7418   37.9513  -12.2573 S   0  0  0  0  0  0  0  0  0  0  0  0
  -25.9473   40.7003  -12.0063 C   0  0  0  0  0  0  0  0  0  0  0  0
  -25.5332   41.8616  -11.3146 C   0  0  0  0  0  0  0  0  0  0  0  0
  -24.6052   41.7335  -10.2486 C   0  0  0  0  0  0  0  0  0  0  0  0
  -24.0988   40.4764   -9.8778 C   0  0  0  0  0  0  0  0  0  0  0  0
  -26.0626   43.1954  -11.6986 C   0  0  0  0  0  0  0  0  0  0  0  0
  -27.3829   43.6102  -11.7173 C   0  0  0  0  0  0  0  0  0  0  0  0
  -27.4214   44.8899  -12.1253 N   0  0  0  0  0  0  0  0  0  0  0  0
  -26.1948   45.3189  -12.3710 N   0  0  0  0  0  0  0  0  0  0  0  0
  -25.3446   44.3056  -12.1183 C   0  0  0  0  0  0  0  0  0  0  0  0
  -25.1761   31.2839   -7.9194 N   0  0  0  0  0  0  0  0  0  0  0  0
  -24.8356   30.2716   -7.0806 C   0  0  0  0  0  0  0  0  0  0  0  0
  -26.1976   27.8367   -3.6051 H   0  0  0  0  0  0  0  0  0  0  0  0
  -25.4187   29.3884   -3.9970 H   0  0  0  0  0  0  0  0  0  0  0  0
  -27.0212   29.0022   -4.6686 H   0  0  0  0  0  0  0  0  0  0  0  0
  -27.5817   28.3292   -7.5749 H   0  0  0  0  0  0  0  0  0  0  0  0
  -27.6698   32.5289   -9.6384 H   0  0  0  0  0  0  0  0  0  0  0  0
  -25.1691   33.6782   -9.4081 H   0  0  0  0  0  0  0  0  0  0  0  0
  -25.1056   32.3854  -10.7825 H   0  0  0  0  0  0  0  0  0  0  0  0
  -26.8601   34.8460  -10.6082 H   0  0  0  0  0  0  0  0  0  0  0  0
  -27.9666   32.8972  -11.7148 H   0  0  0  0  0  0  0  0  0  0  0  0
  -27.6498   34.2295  -12.8519 H   0  0  0  0  0  0  0  0  0  0  0  0
  -26.6013   32.7911  -12.8519 H   0  0  0  0  0  0  0  0  0  0  0  0
  -24.3776   34.0709  -12.1832 H   0  0  0  0  0  0  0  0  0  0  0  0
  -25.5683   35.4260  -12.7403 H   0  0  0  0  0  0  0  0  0  0  0  0
  -23.7324   35.4681  -10.4347 H   0  0  0  0  0  0  0  0  0  0  0  0
  -26.6585   40.7530  -12.8306 H   0  0  0  0  0  0  0  0  0  0  0  0
  -24.2747   42.6180   -9.7039 H   0  0  0  0  0  0  0  0  0  0  0  0
  -23.3861   40.3777   -9.0589 H   0  0  0  0  0  0  0  0  0  0  0  0
  -28.2592   43.0190  -11.4510 H   0  0  0  0  0  0  0  0  0  0  0  0
  -28.2549   45.4502  -12.2323 H   0  0  0  0  0  0  0  0  0  0  0  0
  -24.2628   44.3724  -12.2333 H   0  0  0  0  0  0  0  0  0  0  0  0
  -23.8911   30.3345   -6.5401 H   0  0  0  0  0  0  0  0  0  0  0  0
  1  2  1  0
  2  3  1  0
  3  4  2  0
  4  5  1  0
  5  6  2  0
  6  7  1  0
  7  8  1  0
  8  9  1  0
  9 10  1  0
  9 11  1  0
 11 12  1  0
 12 13  1  0
 13 14  2  0
 14 15  1  0
 15 16  2  0
 16 17  1  0
 13 17  1  0
 16 18  1  0
 18 19  2  0
 19 20  1  0
 20 21  2  0
 15 21  1  0
 19 22  1  0
 22 23  2  0
 23 24  1  0
 24 25  1  0
 25 26  2  0
 22 26  1  0
  6 27  1  0
 27 28  2  0
  3 28  1  0
  1 29  1  0
  1 30  1  0
  1 31  1  0
  4 32  1  0
  7 33  1  0
  8 34  1  0
  8 35  1  0
  9 36  1  0
 10 37  1  0
 10 38  1  0
 10 39  1  0
 11 40  1  0
 11 41  1  0
 12 42  1  0
 18 43  1  0
 20 44  1  0
 21 45  1  0
 23 46  1  0
 24 47  1  0
 26 48  1  0
 28 49  1  0
M  END
>  <21666828|PCSK9_Human_KD_nM_PREFIX|1>  (1) 
>=

>  <21666828|PCSK9_Human_KD_nM_REMARKS|1>  (1) 
Range >= 200 nM to < 2000 nM

>  <21666828|PCSK9_Human_KD_nM|1>  (1) 
200

>  <CHROM.1>  (1) 
-91.10096198,-149.62316862,175.17344493,-56.10794176,-74.06869720,-99.71235747
175.91890156,59.08071278

>  <COMPOUND_ID>  (1) 
Example_97

>  <EmbedRMS>  (1) 
0.08849044145751503

>  <GVK_ID>  (1) 
124889507

>  <ISOMER>  (1) 
None

>  <Kd_Range>  (1) 
>= 200

>  <Name>  (1) 


>  <PAGE>  (1) 
72

>  <REFERENCE>  (1) 
WO 2020/150474 A1

>  <REF_ID>  (1) 
2133368

>  <RI>  (1) 
1.3237e+07

>  <Rbt.Current_Directory>  (1) 
/dev/shm/dwight/Example-97

>  <Rbt.Executable>  (1) 
rbdock ($Id: //depot/dev/client3/rdock/2013.1/src/exe/rbdock.cxx#4 $)

>  <Rbt.Library>  (1) 
libRbt.so (2013.1, Build901 2013/11/27)

>  <Rbt.Parameter_File>  (1) 
dock.prm

>  <Rbt.Receptor>  (1) 
receptor.prm

>  <SCORE>  (1) 
25.2554

>  <SCORE.INTER>  (1) 
23.4824

>  <SCORE.INTER.CONST>  (1) 
1

>  <SCORE.INTER.POLAR>  (1) 
-2.80872

>  <SCORE.INTER.REPUL>  (1) 
0

>  <SCORE.INTER.ROT>  (1) 
8

>  <SCORE.INTER.VDW>  (1) 
19.6321

>  <SCORE.INTER.norm>  (1) 
0.838657

>  <SCORE.INTRA>  (1) 
1.77303

>  <SCORE.INTRA.DIHEDRAL>  (1) 
11.5859

>  <SCORE.INTRA.DIHEDRAL.0>  (1) 
9.33637

>  <SCORE.INTRA.POLAR>  (1) 
0

>  <SCORE.INTRA.POLAR.0>  (1) 
0

>  <SCORE.INTRA.REPUL>  (1) 
0

>  <SCORE.INTRA.REPUL.0>  (1) 
0

>  <SCORE.INTRA.VDW>  (1) 
-4.01994

>  <SCORE.INTRA.VDW.0>  (1) 
3.51203

>  <SCORE.INTRA.norm>  (1) 
0.0633224

>  <SCORE.RESTR>  (1) 
0

>  <SCORE.RESTR.CAVITY>  (1) 
0

>  <SCORE.RESTR.norm>  (1) 
0

>  <SCORE.SYSTEM>  (1) 
0

>  <SCORE.SYSTEM.CONST>  (1) 
0

>  <SCORE.SYSTEM.DIHEDRAL>  (1) 
0

>  <SCORE.SYSTEM.norm>  (1) 
0

>  <SCORE.heavy>  (1) 
28

>  <SCORE.norm>  (1) 
0.90198

>  <TETHERED ATOMS>  (1) 
9,8,11,12,13,7,6

>  <_MOLCOUNT>  (1) 
1

$$$$
