
     RDKit          3D

 68 71  0  0  0  0  0  0  0  0999 V2000
  -24.2843   23.9046    3.0241 C   0  0  0  0  0  0  0  0  0  0  0  0
  -25.3560   23.3243    2.2877 O   0  0  0  0  0  0  0  0  0  0  0  0
  -25.7015   23.6842    0.9764 C   0  0  0  0  0  0  0  0  0  0  0  0
  -26.0696   22.7342    0.0040 C   0  0  0  0  0  0  0  0  0  0  0  0
  -26.4037   23.1434   -1.2907 C   0  0  0  0  0  0  0  0  0  0  0  0
  -26.3645   24.5026   -1.6367 C   0  0  0  0  0  0  0  0  0  0  0  0
  -26.7566   24.9485   -3.0178 C   0  0  0  0  0  0  0  0  0  0  0  0
  -25.8200   25.9706   -3.4887 N   0  0  0  0  0  0  0  0  0  0  0  0
  -25.8461   26.0365   -5.2248 S   0  0  0  0  0  0  0  0  0  0  0  0
  -24.5041   25.6309   -5.7700 O   0  0  0  0  0  0  0  0  0  0  0  0
  -26.8822   25.0790   -5.7428 O   0  0  0  0  0  0  0  0  0  0  0  0
  -26.2562   27.6646   -5.7574 C   0  0  0  0  0  0  0  0  0  0  0  0
  -25.6410   28.1917   -6.9073 C   0  0  0  0  0  0  0  0  0  0  0  0
  -25.9998   29.4720   -7.3191 C   0  0  0  0  0  0  0  0  0  0  0  0
  -26.9385   30.2291   -6.6363 C   0  0  0  0  0  0  0  0  0  0  0  0
  -27.5611   29.7193   -5.4970 C   0  0  0  0  0  0  0  0  0  0  0  0
  -27.2175   28.4293   -5.0581 C   0  0  0  0  0  0  0  0  0  0  0  0
  -27.1885   31.4552   -7.1623 N   0  0  0  0  0  0  0  0  0  0  0  0
  -26.4356   31.6661   -8.2691 C   0  0  0  0  0  0  0  0  0  0  0  0
  -26.5162   32.8708   -9.0336 N   0  0  0  0  0  0  0  0  0  0  0  0
  -25.6642   33.1029  -10.1978 C   0  0  0  0  0  0  0  0  0  0  0  0
  -26.2665   34.1341  -11.1838 C   0  0  0  0  0  0  0  0  0  0  0  0
  -25.1173   34.8339  -11.9434 C   0  0  0  0  0  0  0  0  0  0  0  0
  -24.3799   35.7439  -11.0757 N   0  0  0  0  0  0  0  0  0  0  0  0
  -24.7200   37.1312  -10.9681 C   0  0  0  0  0  0  0  0  0  0  0  0
  -25.6148   37.6966  -11.8252 N   0  0  0  0  0  0  0  0  0  0  0  0
  -25.9448   39.0102  -11.7287 C   0  0  0  0  0  0  0  0  0  0  0  0
  -25.3649   39.8012  -10.7362 C   0  0  0  0  0  0  0  0  0  0  0  0
  -25.7775   41.5404  -10.5902 S   0  0  0  0  0  0  0  0  0  0  0  0
  -24.8583   42.0089  -12.0890 C   0  0  0  0  0  0  0  0  0  0  0  0
  -24.4468   39.2090   -9.8676 C   0  0  0  0  0  0  0  0  0  0  0  0
  -24.1442   37.8912   -9.9982 N   0  0  0  0  0  0  0  0  0  0  0  0
  -27.2530   33.5123  -12.2151 C   0  0  0  0  0  0  0  0  0  0  0  0
  -28.3687   34.4416  -12.6137 C   0  0  0  0  0  0  0  0  0  0  0  0
  -28.1469   35.8491  -12.7048 N   0  0  0  0  0  0  0  0  0  0  0  0
  -29.5125   33.9759  -12.8631 O   0  0  0  0  0  0  0  0  0  0  0  0
  -25.4401   30.3422   -8.6407 S   0  0  0  0  0  0  0  0  0  0  0  0
  -26.0133   25.4501   -0.6633 C   0  0  0  0  0  0  0  0  0  0  0  0
  -25.6794   25.0406    0.6311 C   0  0  0  0  0  0  0  0  0  0  0  0
  -23.5519   24.3211    2.3326 H   0  0  0  0  0  0  0  0  0  0  0  0
  -24.6709   24.6972    3.6648 H   0  0  0  0  0  0  0  0  0  0  0  0
  -23.8097   23.1397    3.6388 H   0  0  0  0  0  0  0  0  0  0  0  0
  -26.0960   21.6739    0.2555 H   0  0  0  0  0  0  0  0  0  0  0  0
  -26.6958   22.4003   -2.0327 H   0  0  0  0  0  0  0  0  0  0  0  0
  -26.6329   24.0919   -3.6804 H   0  0  0  0  0  0  0  0  0  0  0  0
  -27.7271   25.4379   -2.9351 H   0  0  0  0  0  0  0  0  0  0  0  0
  -25.2960   26.4911   -2.7999 H   0  0  0  0  0  0  0  0  0  0  0  0
  -24.9014   27.6199   -7.4677 H   0  0  0  0  0  0  0  0  0  0  0  0
  -28.2997   30.3157   -4.9616 H   0  0  0  0  0  0  0  0  0  0  0  0
  -27.6993   28.0196   -4.1703 H   0  0  0  0  0  0  0  0  0  0  0  0
  -27.1862   33.5698   -8.7463 H   0  0  0  0  0  0  0  0  0  0  0  0
  -24.7498   33.5390   -9.7955 H   0  0  0  0  0  0  0  0  0  0  0  0
  -25.6288   32.1449  -10.7165 H   0  0  0  0  0  0  0  0  0  0  0  0
  -26.8363   34.8441  -10.5843 H   0  0  0  0  0  0  0  0  0  0  0  0
  -24.3998   34.0648  -12.2291 H   0  0  0  0  0  0  0  0  0  0  0  0
  -25.5695   35.4677  -12.7062 H   0  0  0  0  0  0  0  0  0  0  0  0
  -23.6039   35.4000  -10.5283 H   0  0  0  0  0  0  0  0  0  0  0  0
  -26.6636   39.4231  -12.4365 H   0  0  0  0  0  0  0  0  0  0  0  0
  -24.1874   41.1977  -12.3722 H   0  0  0  0  0  0  0  0  0  0  0  0
  -25.5601   42.2001  -12.9008 H   0  0  0  0  0  0  0  0  0  0  0  0
  -24.2767   42.9094  -11.8919 H   0  0  0  0  0  0  0  0  0  0  0  0
  -23.9607   39.7823   -9.0783 H   0  0  0  0  0  0  0  0  0  0  0  0
  -26.6815   33.3417  -13.1275 H   0  0  0  0  0  0  0  0  0  0  0  0
  -27.7407   32.6766  -11.7132 H   0  0  0  0  0  0  0  0  0  0  0  0
  -27.3668   36.2038  -13.2393 H   0  0  0  0  0  0  0  0  0  0  0  0
  -28.7701   36.4900  -12.2348 H   0  0  0  0  0  0  0  0  0  0  0  0
  -25.9998   26.5108   -0.9141 H   0  0  0  0  0  0  0  0  0  0  0  0
  -25.3995   25.7846    1.3768 H   0  0  0  0  0  0  0  0  0  0  0  0
  1  2  1  0
  2  3  1  0
  3  4  2  0
  4  5  1  0
  5  6  2  0
  6  7  1  0
  7  8  1  0
  8  9  1  0
  9 10  2  0
  9 11  2  0
  9 12  1  0
 12 13  2  0
 13 14  1  0
 14 15  2  0
 15 16  1  0
 16 17  2  0
 12 17  1  0
 15 18  1  0
 18 19  2  0
 19 20  1  0
 20 21  1  0
 21 22  1  0
 22 23  1  0
 23 24  1  0
 24 25  1  0
 25 26  2  0
 26 27  1  0
 27 28  2  0
 28 29  1  0
 29 30  1  0
 28 31  1  0
 31 32  2  0
 25 32  1  0
 22 33  1  0
 33 34  1  0
 34 35  1  0
 34 36  2  0
 19 37  1  0
 14 37  1  0
  6 38  1  0
 38 39  2  0
  3 39  1  0
  1 40  1  0
  1 41  1  0
  1 42  1  0
  4 43  1  0
  5 44  1  0
  7 45  1  0
  7 46  1  0
  8 47  1  0
 13 48  1  0
 16 49  1  0
 17 50  1  0
 20 51  1  0
 21 52  1  0
 21 53  1  0
 22 54  1  0
 23 55  1  0
 23 56  1  0
 24 57  1  0
 27 58  1  0
 30 59  1  0
 30 60  1  0
 30 61  1  0
 31 62  1  0
 33 63  1  0
 33 64  1  0
 35 65  1  0
 35 66  1  0
 38 67  1  0
 39 68  1  0
M  END
>  <21666828|PCSK9_Human_KD_nM_PREFIX|1>  (1) 
>=

>  <21666828|PCSK9_Human_KD_nM_REMARKS|1>  (1) 
Range >= 2000 nM to < 20000 nM

>  <21666828|PCSK9_Human_KD_nM|1>  (1) 
2000

>  <CHROM.1>  (1) 
139.01219510,-137.98490016,157.59542905,-115.73767040,143.36621470,177.81882662
156.75897635,152.21127350,-71.49660613,-92.26979121,-10.10820041,-72.06094081
147.39638024,34.10424093

>  <COMPOUND_ID>  (1) 
Example_177

>  <EmbedRMS>  (1) 
0.09278178999092268

>  <GVK_ID>  (1) 
124889532

>  <ISOMER>  (1) 
None

>  <Kd_Range>  (1) 
>= 2000

>  <Name>  (1) 


>  <PAGE>  (1) 
83

>  <REFERENCE>  (1) 
WO 2020/150474 A1

>  <REF_ID>  (1) 
2133368

>  <RI>  (1) 
2.26168e+07

>  <Rbt.Current_Directory>  (1) 
/dev/shm/dwight/Example-177

>  <Rbt.Executable>  (1) 
rbdock ($Id: //depot/dev/client3/rdock/2013.1/src/exe/rbdock.cxx#4 $)

>  <Rbt.Library>  (1) 
libRbt.so (2013.1, Build901 2013/11/27)

>  <Rbt.Parameter_File>  (1) 
dock.prm

>  <Rbt.Receptor>  (1) 
receptor.prm

>  <SCORE>  (1) 
62.4894

>  <SCORE.INTER>  (1) 
63.4002

>  <SCORE.INTER.CONST>  (1) 
1

>  <SCORE.INTER.POLAR>  (1) 
-0.441699

>  <SCORE.INTER.REPUL>  (1) 
0.0337096

>  <SCORE.INTER.ROT>  (1) 
14

>  <SCORE.INTER.VDW>  (1) 
45.3334

>  <SCORE.INTER.norm>  (1) 
1.62565

>  <SCORE.INTRA>  (1) 
-1.06068

>  <SCORE.INTRA.DIHEDRAL>  (1) 
3.7091

>  <SCORE.INTRA.DIHEDRAL.0>  (1) 
18.7019

>  <SCORE.INTRA.POLAR>  (1) 
0

>  <SCORE.INTRA.POLAR.0>  (1) 
0

>  <SCORE.INTRA.REPUL>  (1) 
0

>  <SCORE.INTRA.REPUL.0>  (1) 
0

>  <SCORE.INTRA.VDW>  (1) 
-2.91523

>  <SCORE.INTRA.VDW.0>  (1) 
5.98499

>  <SCORE.INTRA.norm>  (1) 
-0.0271969

>  <SCORE.RESTR>  (1) 
0.149891

>  <SCORE.RESTR.CAVITY>  (1) 
0.149891

>  <SCORE.RESTR.norm>  (1) 
0.00384337

>  <SCORE.SYSTEM>  (1) 
0

>  <SCORE.SYSTEM.CONST>  (1) 
0

>  <SCORE.SYSTEM.DIHEDRAL>  (1) 
0

>  <SCORE.SYSTEM.norm>  (1) 
0

>  <SCORE.heavy>  (1) 
39

>  <SCORE.norm>  (1) 
1.60229

>  <TETHERED ATOMS>  (1) 
22,21,23,24,25,20,19

>  <_MOLCOUNT>  (1) 
1

$$$$
