
     RDKit          3D

 58 61  0  0  0  0  0  0  0  0999 V2000
  -26.0880   28.5460   -4.4080 C   0  0  0  0  0  0  0  0  0  0  0  0
  -25.2634   27.8087   -5.8527 S   0  0  0  0  0  0  0  0  0  0  0  0
  -25.6912   29.1682   -6.9413 C   0  0  0  0  0  0  0  0  0  0  0  0
  -26.8725   29.1446   -7.6840 C   0  0  0  0  0  0  0  0  0  0  0  0
  -27.1759   30.1822   -8.5064 N   0  0  0  0  0  0  0  0  0  0  0  0
  -26.3439   31.2523   -8.6229 C   0  0  0  0  0  0  0  0  0  0  0  0
  -26.6902   32.3283   -9.4991 N   0  0  0  0  0  0  0  0  0  0  0  0
  -25.6679   33.1121  -10.1929 C   0  0  0  0  0  0  0  0  0  0  0  0
  -26.2690   34.1379  -11.1841 C   0  0  0  0  0  0  0  0  0  0  0  0
  -27.1910   33.4675  -12.2259 C   0  0  0  0  0  0  0  0  0  0  0  0
  -25.1201   34.8349  -11.9437 C   0  0  0  0  0  0  0  0  0  0  0  0
  -24.4578   35.8313  -11.1119 N   0  0  0  0  0  0  0  0  0  0  0  0
  -24.6480   37.2329  -11.3282 C   0  0  0  0  0  0  0  0  0  0  0  0
  -24.2626   38.1868  -10.4445 N   0  0  0  0  0  0  0  0  0  0  0  0
  -24.5593   39.4240  -10.9167 C   0  0  0  0  0  0  0  0  0  0  0  0
  -25.1718   39.4523  -12.1583 C   0  0  0  0  0  0  0  0  0  0  0  0
  -25.3622   37.8808  -12.7192 S   0  0  0  0  0  0  0  0  0  0  0  0
  -25.5332   40.6441  -12.7798 C   0  0  0  0  0  0  0  0  0  0  0  0
  -25.2690   41.8608  -12.1115 C   0  0  0  0  0  0  0  0  0  0  0  0
  -24.6321   41.8303  -10.8450 C   0  0  0  0  0  0  0  0  0  0  0  0
  -24.2792   40.6109  -10.2432 C   0  0  0  0  0  0  0  0  0  0  0  0
  -25.6262   43.1625  -12.7245 C   0  0  0  0  0  0  0  0  0  0  0  0
  -25.7812   44.1713  -11.9827 O   0  0  0  0  0  0  0  0  0  0  0  0
  -25.8178   43.2901  -14.1436 N   0  0  0  0  0  0  0  0  0  0  0  0
  -26.0942   44.5754  -14.7805 C   0  0  0  0  0  0  0  0  0  0  0  0
  -26.4583   44.3783  -16.2226 C   0  0  0  0  0  0  0  0  0  0  0  0
  -27.7294   44.3128  -16.6651 N   0  0  0  0  0  0  0  0  0  0  0  0
  -27.5625   44.0926  -17.9881 C   0  0  0  0  0  0  0  0  0  0  0  0
  -26.2637   44.0195  -18.3410 N   0  0  0  0  0  0  0  0  0  0  0  0
  -25.5793   44.2097  -17.2285 N   0  0  0  0  0  0  0  0  0  0  0  0
  -24.1249   44.1465  -17.1426 C   0  0  0  0  0  0  0  0  0  0  0  0
  -25.1851   31.2868   -7.9087 N   0  0  0  0  0  0  0  0  0  0  0  0
  -24.8448   30.2698   -7.0754 C   0  0  0  0  0  0  0  0  0  0  0  0
  -26.2351   27.7821   -3.6445 H   0  0  0  0  0  0  0  0  0  0  0  0
  -25.4682   29.3473   -4.0056 H   0  0  0  0  0  0  0  0  0  0  0  0
  -27.0547   28.9502   -4.7084 H   0  0  0  0  0  0  0  0  0  0  0  0
  -27.5661   28.3061   -7.6211 H   0  0  0  0  0  0  0  0  0  0  0  0
  -27.6696   32.5375   -9.6296 H   0  0  0  0  0  0  0  0  0  0  0  0
  -25.1670   33.6796   -9.4087 H   0  0  0  0  0  0  0  0  0  0  0  0
  -25.1080   32.3864  -10.7828 H   0  0  0  0  0  0  0  0  0  0  0  0
  -26.8589   34.8498  -10.6068 H   0  0  0  0  0  0  0  0  0  0  0  0
  -27.9686   32.9021  -11.7124 H   0  0  0  0  0  0  0  0  0  0  0  0
  -27.6510   34.2334  -12.8503 H   0  0  0  0  0  0  0  0  0  0  0  0
  -26.6042   32.7938  -12.8503 H   0  0  0  0  0  0  0  0  0  0  0  0
  -24.3605   34.0805  -12.1486 H   0  0  0  0  0  0  0  0  0  0  0  0
  -25.5660   35.3963  -12.7648 H   0  0  0  0  0  0  0  0  0  0  0  0
  -23.8473   35.5411  -10.3615 H   0  0  0  0  0  0  0  0  0  0  0  0
  -26.0089   40.6253  -13.7604 H   0  0  0  0  0  0  0  0  0  0  0  0
  -24.4096   42.7617  -10.3243 H   0  0  0  0  0  0  0  0  0  0  0  0
  -23.7948   40.5860   -9.2671 H   0  0  0  0  0  0  0  0  0  0  0  0
  -25.7565   42.4548  -14.7080 H   0  0  0  0  0  0  0  0  0  0  0  0
  -26.9756   44.9771  -14.2806 H   0  0  0  0  0  0  0  0  0  0  0  0
  -25.1562   45.1304  -14.7609 H   0  0  0  0  0  0  0  0  0  0  0  0
  -28.3861   43.9856  -18.6941 H   0  0  0  0  0  0  0  0  0  0  0  0
  -23.7836   44.7551  -16.3053 H   0  0  0  0  0  0  0  0  0  0  0  0
  -23.8145   43.1127  -16.9908 H   0  0  0  0  0  0  0  0  0  0  0  0
  -23.6896   44.5244  -18.0678 H   0  0  0  0  0  0  0  0  0  0  0  0
  -23.9075   30.3365   -6.5231 H   0  0  0  0  0  0  0  0  0  0  0  0
  1  2  1  0
  2  3  1  0
  3  4  2  0
  4  5  1  0
  5  6  2  0
  6  7  1  0
  7  8  1  0
  9  8  1  0
  9 10  1  0
  9 11  1  0
 11 12  1  0
 12 13  1  0
 13 14  2  0
 14 15  1  0
 15 16  2  0
 16 17  1  0
 13 17  1  0
 16 18  1  0
 18 19  2  0
 19 20  1  0
 20 21  2  0
 15 21  1  0
 19 22  1  0
 22 23  2  0
 22 24  1  0
 24 25  1  0
 25 26  1  0
 26 27  2  0
 27 28  1  0
 28 29  2  0
 29 30  1  0
 26 30  1  0
 30 31  1  0
  6 32  1  0
 32 33  2  0
  3 33  1  0
  1 34  1  0
  1 35  1  0
  1 36  1  0
  4 37  1  0
  7 38  1  0
  8 39  1  0
  8 40  1  0
  9 41  1  0
 10 42  1  0
 10 43  1  0
 10 44  1  0
 11 45  1  0
 11 46  1  0
 12 47  1  0
 18 48  1  0
 20 49  1  0
 21 50  1  0
 24 51  1  0
 25 52  1  0
 25 53  1  0
 28 54  1  0
 31 55  1  0
 31 56  1  0
 31 57  1  0
 33 58  1  0
M  END
>  <21666828|PCSK9_Human_KD_nM_PREFIX|1>  (1) 
<

>  <21666828|PCSK9_Human_KD_nM|1>  (1) 
200

>  <CHROM.1>  (1) 
-90.78039232,-148.31396855,174.80968843,-56.17697177,-76.32784271,-106.57001954
167.31237671,157.67594935,-171.16643592,96.34221778

>  <COMPOUND_ID>  (1) 
Example_31

>  <EmbedRMS>  (1) 
0.08746899628239845

>  <GVK_ID>  (1) 
124889477

>  <ISOMER>  (1) 
None

>  <Kd_Range>  (1) 
< 200

>  <Name>  (1) 


>  <PAGE>  (1) 
60

>  <REFERENCE>  (1) 
WO 2020/150474 A1

>  <REF_ID>  (1) 
2133368

>  <RI>  (1) 
3.7731e+07

>  <Rbt.Current_Directory>  (1) 
/dev/shm/dwight/Example-31

>  <Rbt.Executable>  (1) 
rbdock ($Id: //depot/dev/client3/rdock/2013.1/src/exe/rbdock.cxx#4 $)

>  <Rbt.Library>  (1) 
libRbt.so (2013.1, Build901 2013/11/27)

>  <Rbt.Parameter_File>  (1) 
dock.prm

>  <Rbt.Receptor>  (1) 
receptor.prm

>  <SCORE>  (1) 
22.8501

>  <SCORE.INTER>  (1) 
17.5066

>  <SCORE.INTER.CONST>  (1) 
1

>  <SCORE.INTER.POLAR>  (1) 
-3.13998

>  <SCORE.INTER.REPUL>  (1) 
0.40405

>  <SCORE.INTER.ROT>  (1) 
10

>  <SCORE.INTER.VDW>  (1) 
10.7623

>  <SCORE.INTER.norm>  (1) 
0.530504

>  <SCORE.INTRA>  (1) 
5.34344

>  <SCORE.INTRA.DIHEDRAL>  (1) 
6.88815

>  <SCORE.INTRA.DIHEDRAL.0>  (1) 
13.86

>  <SCORE.INTRA.POLAR>  (1) 
0

>  <SCORE.INTRA.POLAR.0>  (1) 
0

>  <SCORE.INTRA.REPUL>  (1) 
0

>  <SCORE.INTRA.REPUL.0>  (1) 
0

>  <SCORE.INTRA.VDW>  (1) 
1.89936

>  <SCORE.INTRA.VDW.0>  (1) 
1.42301

>  <SCORE.INTRA.norm>  (1) 
0.161922

>  <SCORE.RESTR>  (1) 
0

>  <SCORE.RESTR.CAVITY>  (1) 
0

>  <SCORE.RESTR.norm>  (1) 
0

>  <SCORE.SYSTEM>  (1) 
0

>  <SCORE.SYSTEM.CONST>  (1) 
0

>  <SCORE.SYSTEM.DIHEDRAL>  (1) 
0

>  <SCORE.SYSTEM.norm>  (1) 
0

>  <SCORE.heavy>  (1) 
33

>  <SCORE.norm>  (1) 
0.692426

>  <TETHERED ATOMS>  (1) 
9,8,11,12,13,7,6

>  <_MOLCOUNT>  (1) 
1

$$$$
