
     RDKit          3D

 52 55  0  0  0  0  0  0  0  0999 V2000
  -26.1690   28.4484   -4.4765 C   0  0  0  0  0  0  0  0  0  0  0  0
  -25.2174   27.7959   -5.8836 S   0  0  0  0  0  0  0  0  0  0  0  0
  -25.6638   29.1520   -6.9691 C   0  0  0  0  0  0  0  0  0  0  0  0
  -26.8521   29.1206   -7.7002 C   0  0  0  0  0  0  0  0  0  0  0  0
  -27.1694   30.1558   -8.5201 N   0  0  0  0  0  0  0  0  0  0  0  0
  -26.3430   31.2306   -8.6471 C   0  0  0  0  0  0  0  0  0  0  0  0
  -26.6898   32.3164   -9.5107 N   0  0  0  0  0  0  0  0  0  0  0  0
  -25.6677   33.1100  -10.1933 C   0  0  0  0  0  0  0  0  0  0  0  0
  -26.2688   34.1347  -11.1851 C   0  0  0  0  0  0  0  0  0  0  0  0
  -27.1892   33.4636  -12.2277 C   0  0  0  0  0  0  0  0  0  0  0  0
  -25.1196   34.8326  -11.9436 C   0  0  0  0  0  0  0  0  0  0  0  0
  -24.4517   35.8207  -11.1066 N   0  0  0  0  0  0  0  0  0  0  0  0
  -24.7199   37.2233  -11.2197 C   0  0  0  0  0  0  0  0  0  0  0  0
  -24.1946   38.1323  -10.3630 N   0  0  0  0  0  0  0  0  0  0  0  0
  -24.6003   39.3879  -10.6820 C   0  0  0  0  0  0  0  0  0  0  0  0
  -25.4399   39.4781  -11.7795 C   0  0  0  0  0  0  0  0  0  0  0  0
  -25.7053   37.9422  -12.4017 S   0  0  0  0  0  0  0  0  0  0  0  0
  -25.9422   40.6952  -12.2301 C   0  0  0  0  0  0  0  0  0  0  0  0
  -25.5708   41.8726  -11.5455 C   0  0  0  0  0  0  0  0  0  0  0  0
  -24.7223   41.7793  -10.4139 C   0  0  0  0  0  0  0  0  0  0  0  0
  -24.2313   40.5355   -9.9826 C   0  0  0  0  0  0  0  0  0  0  0  0
  -26.0972   43.1843  -11.9905 C   0  0  0  0  0  0  0  0  0  0  0  0
  -27.3432   43.3417  -12.1032 O   0  0  0  0  0  0  0  0  0  0  0  0
  -25.2157   44.2693  -12.3254 N   0  0  0  0  0  0  0  0  0  0  0  0
  -24.0252   44.1947  -12.9516 C   0  0  0  0  0  0  0  0  0  0  0  0
  -23.5206   45.4216  -13.1900 N   0  0  0  0  0  0  0  0  0  0  0  0
  -24.3910   46.3039  -12.7200 N   0  0  0  0  0  0  0  0  0  0  0  0
  -25.4149   45.5975  -12.2079 C   0  0  0  0  0  0  0  0  0  0  0  0
  -26.5415   46.2031  -11.5720 N   0  0  0  0  0  0  0  0  0  0  0  0
  -25.1800   31.2734   -7.9425 N   0  0  0  0  0  0  0  0  0  0  0  0
  -24.8258   30.2588   -7.1117 C   0  0  0  0  0  0  0  0  0  0  0  0
  -25.8197   27.9833   -3.5547 H   0  0  0  0  0  0  0  0  0  0  0  0
  -26.0310   29.5278   -4.4139 H   0  0  0  0  0  0  0  0  0  0  0  0
  -27.2265   28.2250   -4.6182 H   0  0  0  0  0  0  0  0  0  0  0  0
  -27.5401   28.2782   -7.6299 H   0  0  0  0  0  0  0  0  0  0  0  0
  -27.6693   32.5255   -9.6401 H   0  0  0  0  0  0  0  0  0  0  0  0
  -25.1771   33.6783   -9.4031 H   0  0  0  0  0  0  0  0  0  0  0  0
  -25.0978   32.3907  -10.7815 H   0  0  0  0  0  0  0  0  0  0  0  0
  -26.8602   34.8458  -10.6084 H   0  0  0  0  0  0  0  0  0  0  0  0
  -27.9664   32.8969  -11.7150 H   0  0  0  0  0  0  0  0  0  0  0  0
  -27.6498   34.2292  -12.8520 H   0  0  0  0  0  0  0  0  0  0  0  0
  -26.6011   32.7910  -12.8520 H   0  0  0  0  0  0  0  0  0  0  0  0
  -24.3632   34.0769  -12.1559 H   0  0  0  0  0  0  0  0  0  0  0  0
  -25.5659   35.4012  -12.7595 H   0  0  0  0  0  0  0  0  0  0  0  0
  -23.7748   35.5211  -10.4194 H   0  0  0  0  0  0  0  0  0  0  0  0
  -26.6068   40.7255  -13.0935 H   0  0  0  0  0  0  0  0  0  0  0  0
  -24.4426   42.6792   -9.8661 H   0  0  0  0  0  0  0  0  0  0  0  0
  -23.5730   40.4618   -9.1171 H   0  0  0  0  0  0  0  0  0  0  0  0
  -23.5338   43.2623  -13.2296 H   0  0  0  0  0  0  0  0  0  0  0  0
  -26.6902   47.1991  -11.6497 H   0  0  0  0  0  0  0  0  0  0  0  0
  -27.1894   45.6354  -11.0447 H   0  0  0  0  0  0  0  0  0  0  0  0
  -23.8839   30.3317   -6.5680 H   0  0  0  0  0  0  0  0  0  0  0  0
  1  2  1  0
  2  3  1  0
  3  4  2  0
  4  5  1  0
  5  6  2  0
  6  7  1  0
  7  8  1  0
  9  8  1  0
  9 10  1  0
  9 11  1  0
 11 12  1  0
 12 13  1  0
 13 14  2  0
 14 15  1  0
 15 16  2  0
 16 17  1  0
 13 17  1  0
 16 18  1  0
 18 19  2  0
 19 20  1  0
 20 21  2  0
 15 21  1  0
 19 22  1  0
 22 23  2  0
 22 24  1  0
 24 25  1  0
 25 26  2  0
 26 27  1  0
 27 28  2  0
 24 28  1  0
 28 29  1  0
  6 30  1  0
 30 31  2  0
  3 31  1  0
  1 32  1  0
  1 33  1  0
  1 34  1  0
  4 35  1  0
  7 36  1  0
  8 37  1  0
  8 38  1  0
  9 39  1  0
 10 40  1  0
 10 41  1  0
 10 42  1  0
 11 43  1  0
 11 44  1  0
 12 45  1  0
 18 46  1  0
 20 47  1  0
 21 48  1  0
 25 49  1  0
 29 50  1  0
 29 51  1  0
 31 52  1  0
M  END
>  <21666828|PCSK9_Human_KD_nM_PREFIX|1>  (1) 
<

>  <21666828|PCSK9_Human_KD_nM|1>  (1) 
200

>  <CHROM.1>  (1) 
-85.56206000,-149.08556297,174.12472090,-55.59378773,-75.79456428,-100.78080598
173.79012365,54.13470720

>  <COMPOUND_ID>  (1) 
Example_27

>  <EmbedRMS>  (1) 
0.08852841592855282

>  <GVK_ID>  (1) 
124889473

>  <ISOMER>  (1) 
None

>  <Kd_Range>  (1) 
< 200

>  <Name>  (1) 


>  <PAGE>  (1) 
59

>  <REFERENCE>  (1) 
WO 2020/150474 A1

>  <REF_ID>  (1) 
2133368

>  <RI>  (1) 
3.87468e+07

>  <Rbt.Current_Directory>  (1) 
/dev/shm/dwight/Example-27

>  <Rbt.Executable>  (1) 
rbdock ($Id: //depot/dev/client3/rdock/2013.1/src/exe/rbdock.cxx#4 $)

>  <Rbt.Library>  (1) 
libRbt.so (2013.1, Build901 2013/11/27)

>  <Rbt.Parameter_File>  (1) 
dock.prm

>  <Rbt.Receptor>  (1) 
receptor.prm

>  <SCORE>  (1) 
23.3158

>  <SCORE.INTER>  (1) 
20.8115

>  <SCORE.INTER.CONST>  (1) 
1

>  <SCORE.INTER.POLAR>  (1) 
-3.22536

>  <SCORE.INTER.REPUL>  (1) 
0.0128935

>  <SCORE.INTER.ROT>  (1) 
8

>  <SCORE.INTER.VDW>  (1) 
18.3133

>  <SCORE.INTER.norm>  (1) 
0.671339

>  <SCORE.INTRA>  (1) 
2.50425

>  <SCORE.INTRA.DIHEDRAL>  (1) 
9.55473

>  <SCORE.INTRA.DIHEDRAL.0>  (1) 
11.6536

>  <SCORE.INTRA.POLAR>  (1) 
0

>  <SCORE.INTRA.POLAR.0>  (1) 
0

>  <SCORE.INTRA.REPUL>  (1) 
0

>  <SCORE.INTRA.REPUL.0>  (1) 
0

>  <SCORE.INTRA.VDW>  (1) 
-2.27312

>  <SCORE.INTRA.VDW.0>  (1) 
1.87486

>  <SCORE.INTRA.norm>  (1) 
0.0807822

>  <SCORE.RESTR>  (1) 
0

>  <SCORE.RESTR.CAVITY>  (1) 
0

>  <SCORE.RESTR.norm>  (1) 
0

>  <SCORE.SYSTEM>  (1) 
0

>  <SCORE.SYSTEM.CONST>  (1) 
0

>  <SCORE.SYSTEM.DIHEDRAL>  (1) 
0

>  <SCORE.SYSTEM.norm>  (1) 
0

>  <SCORE.heavy>  (1) 
31

>  <SCORE.norm>  (1) 
0.752122

>  <TETHERED ATOMS>  (1) 
9,8,11,12,13,7,6

>  <_MOLCOUNT>  (1) 
1

$$$$
