
     RDKit          3D

 54 57  0  0  0  0  0  0  0  0999 V2000
  -26.1986   28.4431   -4.4755 C   0  0  0  0  0  0  0  0  0  0  0  0
  -25.2235   27.8050   -5.8730 S   0  0  0  0  0  0  0  0  0  0  0  0
  -25.6682   29.1617   -6.9584 C   0  0  0  0  0  0  0  0  0  0  0  0
  -26.8484   29.1244   -7.7022 C   0  0  0  0  0  0  0  0  0  0  0  0
  -27.1644   30.1602   -8.5218 N   0  0  0  0  0  0  0  0  0  0  0  0
  -26.3445   31.2412   -8.6364 C   0  0  0  0  0  0  0  0  0  0  0  0
  -26.6901   32.3276   -9.4999 N   0  0  0  0  0  0  0  0  0  0  0  0
  -25.6679   33.1122  -10.1929 C   0  0  0  0  0  0  0  0  0  0  0  0
  -26.2689   34.1379  -11.1843 C   0  0  0  0  0  0  0  0  0  0  0  0
  -27.1908   33.4672  -12.2261 C   0  0  0  0  0  0  0  0  0  0  0  0
  -25.1200   34.8349  -11.9439 C   0  0  0  0  0  0  0  0  0  0  0  0
  -24.4487   35.8212  -11.1075 N   0  0  0  0  0  0  0  0  0  0  0  0
  -24.8779   37.1857  -11.0676 C   0  0  0  0  0  0  0  0  0  0  0  0
  -24.2048   38.1644  -10.4131 N   0  0  0  0  0  0  0  0  0  0  0  0
  -24.8360   39.3572  -10.5566 C   0  0  0  0  0  0  0  0  0  0  0  0
  -25.9945   39.3258  -11.3150 C   0  0  0  0  0  0  0  0  0  0  0  0
  -26.2676   37.7567  -11.8473 S   0  0  0  0  0  0  0  0  0  0  0  0
  -26.7501   40.4685  -11.5610 C   0  0  0  0  0  0  0  0  0  0  0  0
  -26.3199   41.6923  -11.0065 C   0  0  0  0  0  0  0  0  0  0  0  0
  -25.1268   41.7274  -10.2429 C   0  0  0  0  0  0  0  0  0  0  0  0
  -24.3840   40.5574  -10.0117 C   0  0  0  0  0  0  0  0  0  0  0  0
  -27.0788   42.9401  -11.2366 C   0  0  0  0  0  0  0  0  0  0  0  0
  -28.2883   43.0030  -10.8887 O   0  0  0  0  0  0  0  0  0  0  0  0
  -26.4887   44.0678  -11.8895 N   0  0  0  0  0  0  0  0  0  0  0  0
  -25.2575   44.4134  -12.6285 C   0  0  0  0  0  0  0  0  0  0  0  0
  -25.7156   45.7647  -13.0739 C   0  0  0  0  0  0  0  0  0  0  0  0
  -25.9471   45.8262  -14.4544 O   0  0  0  0  0  0  0  0  0  0  0  0
  -26.9497   45.4030  -12.3143 C   0  0  0  0  0  0  0  0  0  0  0  0
  -25.1894   31.2900   -7.9194 N   0  0  0  0  0  0  0  0  0  0  0  0
  -24.8367   30.2751   -7.0884 C   0  0  0  0  0  0  0  0  0  0  0  0
  -25.8553   27.9790   -3.5509 H   0  0  0  0  0  0  0  0  0  0  0  0
  -26.0728   29.5237   -4.4081 H   0  0  0  0  0  0  0  0  0  0  0  0
  -27.2518   28.2088   -4.6303 H   0  0  0  0  0  0  0  0  0  0  0  0
  -27.5311   28.2767   -7.6423 H   0  0  0  0  0  0  0  0  0  0  0  0
  -27.6692   32.5437   -9.6219 H   0  0  0  0  0  0  0  0  0  0  0  0
  -25.1678   33.6799   -9.4082 H   0  0  0  0  0  0  0  0  0  0  0  0
  -25.1072   32.3869  -10.7826 H   0  0  0  0  0  0  0  0  0  0  0  0
  -26.8588   34.8500  -10.6072 H   0  0  0  0  0  0  0  0  0  0  0  0
  -27.9683   32.9016  -11.7126 H   0  0  0  0  0  0  0  0  0  0  0  0
  -27.6510   34.2330  -12.8505 H   0  0  0  0  0  0  0  0  0  0  0  0
  -26.6038   32.7937  -12.8505 H   0  0  0  0  0  0  0  0  0  0  0  0
  -24.3652   34.0782  -12.1583 H   0  0  0  0  0  0  0  0  0  0  0  0
  -25.5669   35.4050  -12.7584 H   0  0  0  0  0  0  0  0  0  0  0  0
  -23.6604   35.5503  -10.5371 H   0  0  0  0  0  0  0  0  0  0  0  0
  -27.6521   40.4068  -12.1697 H   0  0  0  0  0  0  0  0  0  0  0  0
  -24.7741   42.6708   -9.8261 H   0  0  0  0  0  0  0  0  0  0  0  0
  -23.4702   40.5804   -9.4181 H   0  0  0  0  0  0  0  0  0  0  0  0
  -24.4312   44.5190  -11.9256 H   0  0  0  0  0  0  0  0  0  0  0  0
  -25.1576   43.7563  -13.4924 H   0  0  0  0  0  0  0  0  0  0  0  0
  -25.1503   46.6915  -12.9754 H   0  0  0  0  0  0  0  0  0  0  0  0
  -26.5098   46.5787  -14.6513 H   0  0  0  0  0  0  0  0  0  0  0  0
  -27.0447   46.0473  -11.4403 H   0  0  0  0  0  0  0  0  0  0  0  0
  -27.7864   45.2936  -13.0043 H   0  0  0  0  0  0  0  0  0  0  0  0
  -23.9012   30.3529   -6.5345 H   0  0  0  0  0  0  0  0  0  0  0  0
  1  2  1  0
  2  3  1  0
  3  4  2  0
  4  5  1  0
  5  6  2  0
  6  7  1  0
  7  8  1  0
  9  8  1  0
  9 10  1  0
  9 11  1  0
 11 12  1  0
 12 13  1  0
 13 14  2  0
 14 15  1  0
 15 16  2  0
 16 17  1  0
 13 17  1  0
 16 18  1  0
 18 19  2  0
 19 20  1  0
 20 21  2  0
 15 21  1  0
 19 22  1  0
 22 23  2  0
 22 24  1  0
 24 25  1  0
 25 26  1  0
 26 27  1  0
 26 28  1  0
 24 28  1  0
  6 29  1  0
 29 30  2  0
  3 30  1  0
  1 31  1  0
  1 32  1  0
  1 33  1  0
  4 34  1  0
  7 35  1  0
  8 36  1  0
  8 37  1  0
  9 38  1  0
 10 39  1  0
 10 40  1  0
 10 41  1  0
 11 42  1  0
 11 43  1  0
 12 44  1  0
 18 45  1  0
 20 46  1  0
 21 47  1  0
 25 48  1  0
 25 49  1  0
 26 50  1  0
 27 51  1  0
 28 52  1  0
 28 53  1  0
 30 54  1  0
M  END
>  <21666828|PCSK9_Human_KD_nM_PREFIX|1>  (1) 
<

>  <21666828|PCSK9_Human_KD_nM|1>  (1) 
200

>  <CHROM.1>  (1) 
-85.40627102,-147.68721362,174.03661957,-56.12863909,-75.71435595,-90.14425862
-173.05998550,58.15644257,160.65171038

>  <COMPOUND_ID>  (1) 
Example_12

>  <EmbedRMS>  (1) 
0.08754792774349793

>  <GVK_ID>  (1) 
124889458

>  <ISOMER>  (1) 
None

>  <Kd_Range>  (1) 
< 200

>  <Name>  (1) 


>  <PAGE>  (1) 
56

>  <REFERENCE>  (1) 
WO 2020/150474 A1

>  <REF_ID>  (1) 
2133368

>  <RI>  (1) 
2.55086e+07

>  <Rbt.Current_Directory>  (1) 
/dev/shm/dwight/Example-12

>  <Rbt.Executable>  (1) 
rbdock ($Id: //depot/dev/client3/rdock/2013.1/src/exe/rbdock.cxx#4 $)

>  <Rbt.Library>  (1) 
libRbt.so (2013.1, Build901 2013/11/27)

>  <Rbt.Parameter_File>  (1) 
dock.prm

>  <Rbt.Receptor>  (1) 
receptor.prm

>  <SCORE>  (1) 
20.2577

>  <SCORE.INTER>  (1) 
23.7082

>  <SCORE.INTER.CONST>  (1) 
1

>  <SCORE.INTER.POLAR>  (1) 
-2.57485

>  <SCORE.INTER.REPUL>  (1) 
0

>  <SCORE.INTER.ROT>  (1) 
8

>  <SCORE.INTER.VDW>  (1) 
19.0627

>  <SCORE.INTER.norm>  (1) 
0.790273

>  <SCORE.INTRA>  (1) 
-3.4505

>  <SCORE.INTRA.DIHEDRAL>  (1) 
3.4753

>  <SCORE.INTRA.DIHEDRAL.0>  (1) 
19.4561

>  <SCORE.INTRA.POLAR>  (1) 
0

>  <SCORE.INTRA.POLAR.0>  (1) 
0

>  <SCORE.INTRA.REPUL>  (1) 
0

>  <SCORE.INTRA.REPUL.0>  (1) 
0

>  <SCORE.INTRA.VDW>  (1) 
-5.18815

>  <SCORE.INTRA.VDW.0>  (1) 
4.29265

>  <SCORE.INTRA.norm>  (1) 
-0.115017

>  <SCORE.RESTR>  (1) 
0

>  <SCORE.RESTR.CAVITY>  (1) 
0

>  <SCORE.RESTR.norm>  (1) 
0

>  <SCORE.SYSTEM>  (1) 
0

>  <SCORE.SYSTEM.CONST>  (1) 
0

>  <SCORE.SYSTEM.DIHEDRAL>  (1) 
0

>  <SCORE.SYSTEM.norm>  (1) 
0

>  <SCORE.heavy>  (1) 
30

>  <SCORE.norm>  (1) 
0.675256

>  <TETHERED ATOMS>  (1) 
9,8,11,12,13,7,6

>  <_MOLCOUNT>  (1) 
1

$$$$
