
     RDKit          3D

 44 46  0  0  0  0  0  0  0  0999 V2000
  -25.1530   26.9576   -6.3826 C   0  0  0  0  0  0  0  0  0  0  0  0
  -25.4938   28.3307   -5.2382 S   0  0  0  0  0  0  0  0  0  0  0  0
  -25.8457   29.4980   -6.5536 C   0  0  0  0  0  0  0  0  0  0  0  0
  -24.8789   30.4115   -6.9758 C   0  0  0  0  0  0  0  0  0  0  0  0
  -25.1673   31.2902   -7.9704 N   0  0  0  0  0  0  0  0  0  0  0  0
  -26.3916   31.2999   -8.5666 C   0  0  0  0  0  0  0  0  0  0  0  0
  -26.6839   32.2291   -9.6138 N   0  0  0  0  0  0  0  0  0  0  0  0
  -25.6695   33.1501  -10.1243 C   0  0  0  0  0  0  0  0  0  0  0  0
  -26.2705   34.1122  -11.1620 C   0  0  0  0  0  0  0  0  0  0  0  0
  -27.3026   35.0613  -10.5350 C   0  0  0  0  0  0  0  0  0  0  0  0
  -25.1572   34.8334  -11.9444 C   0  0  0  0  0  0  0  0  0  0  0  0
  -24.5685   35.9309  -11.1792 N   0  0  0  0  0  0  0  0  0  0  0  0
  -24.5175   37.2884  -11.6486 C   0  0  0  0  0  0  0  0  0  0  0  0
  -24.0587   37.6284  -12.9366 C   0  0  0  0  0  0  0  0  0  0  0  0
  -24.0274   38.9329  -13.3176 N   0  0  0  0  0  0  0  0  0  0  0  0
  -24.4235   39.9232  -12.4776 C   0  0  0  0  0  0  0  0  0  0  0  0
  -24.3887   41.2618  -12.8834 C   0  0  0  0  0  0  0  0  0  0  0  0
  -24.7949   42.2676  -11.9992 C   0  0  0  0  0  0  0  0  0  0  0  0
  -25.2342   41.9377  -10.7114 C   0  0  0  0  0  0  0  0  0  0  0  0
  -25.2701   40.6002  -10.3012 C   0  0  0  0  0  0  0  0  0  0  0  0
  -24.8661   39.5914  -11.1824 C   0  0  0  0  0  0  0  0  0  0  0  0
  -24.8957   38.2873  -10.8043 N   0  0  0  0  0  0  0  0  0  0  0  0
  -27.3448   30.4176   -8.1627 N   0  0  0  0  0  0  0  0  0  0  0  0
  -27.0969   29.5225   -7.1716 C   0  0  0  0  0  0  0  0  0  0  0  0
  -24.7256   26.1212   -5.8295 H   0  0  0  0  0  0  0  0  0  0  0  0
  -26.0816   26.6421   -6.8583 H   0  0  0  0  0  0  0  0  0  0  0  0
  -24.4477   27.2871   -7.1456 H   0  0  0  0  0  0  0  0  0  0  0  0
  -23.8875   30.4391   -6.5237 H   0  0  0  0  0  0  0  0  0  0  0  0
  -27.6182   32.2349   -9.9975 H   0  0  0  0  0  0  0  0  0  0  0  0
  -25.3605   33.7485   -9.2672 H   0  0  0  0  0  0  0  0  0  0  0  0
  -24.9425   32.5254  -10.6433 H   0  0  0  0  0  0  0  0  0  0  0  0
  -26.8333   33.5279  -11.8899 H   0  0  0  0  0  0  0  0  0  0  0  0
  -27.2380   35.0019   -9.4485 H   0  0  0  0  0  0  0  0  0  0  0  0
  -27.0987   36.0829  -10.8558 H   0  0  0  0  0  0  0  0  0  0  0  0
  -28.3036   34.7727  -10.8558 H   0  0  0  0  0  0  0  0  0  0  0  0
  -24.3482   34.1169  -12.0865 H   0  0  0  0  0  0  0  0  0  0  0  0
  -25.6253   35.3052  -12.8083 H   0  0  0  0  0  0  0  0  0  0  0  0
  -24.1725   35.7395  -10.2700 H   0  0  0  0  0  0  0  0  0  0  0  0
  -23.7239   36.8727  -13.6472 H   0  0  0  0  0  0  0  0  0  0  0  0
  -24.0460   41.5204  -13.8853 H   0  0  0  0  0  0  0  0  0  0  0  0
  -24.7691   43.3107  -12.3143 H   0  0  0  0  0  0  0  0  0  0  0  0
  -25.5492   42.7247  -10.0261 H   0  0  0  0  0  0  0  0  0  0  0  0
  -25.6118   40.3450   -9.2981 H   0  0  0  0  0  0  0  0  0  0  0  0
  -27.8894   28.8347   -6.8767 H   0  0  0  0  0  0  0  0  0  0  0  0
  1  2  1  0
  2  3  1  0
  3  4  2  0
  4  5  1  0
  5  6  2  0
  6  7  1  0
  7  8  1  0
  8  9  1  0
  9 10  1  0
  9 11  1  0
 11 12  1  0
 12 13  1  0
 13 14  2  0
 14 15  1  0
 15 16  2  0
 16 17  1  0
 17 18  2  0
 18 19  1  0
 19 20  2  0
 20 21  1  0
 16 21  1  0
 21 22  2  0
 13 22  1  0
  6 23  1  0
 23 24  2  0
  3 24  1  0
  1 25  1  0
  1 26  1  0
  1 27  1  0
  4 28  1  0
  7 29  1  0
  8 30  1  0
  8 31  1  0
  9 32  1  0
 10 33  1  0
 10 34  1  0
 10 35  1  0
 11 36  1  0
 11 37  1  0
 12 38  1  0
 14 39  1  0
 17 40  1  0
 18 41  1  0
 19 42  1  0
 20 43  1  0
 24 44  1  0
M  END
>  <21666828|PCSK9_Human_KD_nM_PREFIX|1>  (1) 
>=

>  <21666828|PCSK9_Human_KD_nM_REMARKS|1>  (1) 
Range >= 2000 nM to < 20000 nM

>  <21666828|PCSK9_Human_KD_nM|1>  (1) 
2000

>  <CHROM.1>  (1) 
-99.39196957,3.03112362,-175.45278510,65.89771062,-78.41264735,-123.46039254
-48.72152572

>  <COMPOUND_ID>  (1) 
Example_104

>  <EmbedRMS>  (1) 
0.07174733718653115

>  <GVK_ID>  (1) 
124889514

>  <ISOMER>  (1) 
None

>  <Kd_Range>  (1) 
>= 2000

>  <Name>  (1) 


>  <PAGE>  (1) 
75

>  <REFERENCE>  (1) 
WO 2020/150474 A1

>  <REF_ID>  (1) 
2133368

>  <RI>  (1) 
1.3454e+07

>  <Rbt.Current_Directory>  (1) 
/dev/shm/dwight/Example-104

>  <Rbt.Executable>  (1) 
rbdock ($Id: //depot/dev/client3/rdock/2013.1/src/exe/rbdock.cxx#4 $)

>  <Rbt.Library>  (1) 
libRbt.so (2013.1, Build901 2013/11/27)

>  <Rbt.Parameter_File>  (1) 
dock.prm

>  <Rbt.Receptor>  (1) 
receptor.prm

>  <SCORE>  (1) 
1.17326

>  <SCORE.INTER>  (1) 
6.11165

>  <SCORE.INTER.CONST>  (1) 
1

>  <SCORE.INTER.POLAR>  (1) 
-2.11144

>  <SCORE.INTER.REPUL>  (1) 
0.00679356

>  <SCORE.INTER.ROT>  (1) 
7

>  <SCORE.INTER.VDW>  (1) 
0.856574

>  <SCORE.INTER.norm>  (1) 
0.254652

>  <SCORE.INTRA>  (1) 
-4.93839

>  <SCORE.INTRA.DIHEDRAL>  (1) 
3.26279

>  <SCORE.INTRA.DIHEDRAL.0>  (1) 
11.9756

>  <SCORE.INTRA.POLAR>  (1) 
0

>  <SCORE.INTRA.POLAR.0>  (1) 
0

>  <SCORE.INTRA.REPUL>  (1) 
0

>  <SCORE.INTRA.REPUL.0>  (1) 
0

>  <SCORE.INTRA.VDW>  (1) 
-6.56978

>  <SCORE.INTRA.VDW.0>  (1) 
6.42512

>  <SCORE.INTRA.norm>  (1) 
-0.205766

>  <SCORE.RESTR>  (1) 
0

>  <SCORE.RESTR.CAVITY>  (1) 
0

>  <SCORE.RESTR.norm>  (1) 
0

>  <SCORE.SYSTEM>  (1) 
0

>  <SCORE.SYSTEM.CONST>  (1) 
0

>  <SCORE.SYSTEM.DIHEDRAL>  (1) 
0

>  <SCORE.SYSTEM.norm>  (1) 
0

>  <SCORE.heavy>  (1) 
24

>  <SCORE.norm>  (1) 
0.048886

>  <TETHERED ATOMS>  (1) 
9,8,11,12,13,7,6

>  <_MOLCOUNT>  (1) 
1

$$$$
