
     RDKit          3D

 45 47  0  0  0  0  0  0  0  0999 V2000
  -27.9641   35.9888  -11.5781 C   0  0  0  0  0  0  0  0  0  0  0  0
  -27.3874   35.0006  -10.5634 C   0  0  0  0  0  0  0  0  0  0  0  0
  -26.2845   34.0994  -11.1740 C   0  0  0  0  0  0  0  0  0  0  0  0
  -25.6765   33.1570  -10.1210 C   0  0  0  0  0  0  0  0  0  0  0  0
  -26.4007   31.8871  -10.0840 N   0  0  0  0  0  0  0  0  0  0  0  0
  -26.4049   31.0735   -8.9112 C   0  0  0  0  0  0  0  0  0  0  0  0
  -26.9979   29.8515   -8.8669 N   0  0  0  0  0  0  0  0  0  0  0  0
  -26.7519   29.4768   -7.5998 C   0  0  0  0  0  0  0  0  0  0  0  0
  -26.0478   30.4457   -6.9494 C   0  0  0  0  0  0  0  0  0  0  0  0
  -25.8360   31.4360   -7.7726 O   0  0  0  0  0  0  0  0  0  0  0  0
  -25.6587   30.3157   -5.6193 C   0  0  0  0  0  0  0  0  0  0  0  0
  -26.0201   29.1307   -4.9501 C   0  0  0  0  0  0  0  0  0  0  0  0
  -26.7510   28.1231   -5.6224 C   0  0  0  0  0  0  0  0  0  0  0  0
  -27.1263   28.2925   -6.9694 C   0  0  0  0  0  0  0  0  0  0  0  0
  -25.1721   34.8500  -11.9382 C   0  0  0  0  0  0  0  0  0  0  0  0
  -24.3752   35.6988  -11.0574 N   0  0  0  0  0  0  0  0  0  0  0  0
  -24.5612   37.1180  -10.9873 C   0  0  0  0  0  0  0  0  0  0  0  0
  -24.9920   37.7928  -12.0870 N   0  0  0  0  0  0  0  0  0  0  0  0
  -25.1906   39.1360  -12.0531 C   0  0  0  0  0  0  0  0  0  0  0  0
  -24.9604   39.8432  -10.8724 C   0  0  0  0  0  0  0  0  0  0  0  0
  -25.2061   41.6183  -10.8019 S   0  0  0  0  0  0  0  0  0  0  0  0
  -26.9515   41.4797  -10.3063 C   0  0  0  0  0  0  0  0  0  0  0  0
  -24.5270   39.1368   -9.7501 C   0  0  0  0  0  0  0  0  0  0  0  0
  -24.3421   37.7938   -9.8266 N   0  0  0  0  0  0  0  0  0  0  0  0
  -28.8307   36.4890  -11.1459 H   0  0  0  0  0  0  0  0  0  0  0  0
  -27.2070   36.7299  -11.8342 H   0  0  0  0  0  0  0  0  0  0  0  0
  -28.2656   35.4517  -12.4774 H   0  0  0  0  0  0  0  0  0  0  0  0
  -26.9006   35.6073   -9.7998 H   0  0  0  0  0  0  0  0  0  0  0  0
  -28.2095   34.3385  -10.2913 H   0  0  0  0  0  0  0  0  0  0  0  0
  -26.8017   33.5052  -11.9273 H   0  0  0  0  0  0  0  0  0  0  0  0
  -24.6670   32.9093  -10.4492 H   0  0  0  0  0  0  0  0  0  0  0  0
  -25.8353   33.6137   -9.1441 H   0  0  0  0  0  0  0  0  0  0  0  0
  -26.9129   31.5626  -10.8918 H   0  0  0  0  0  0  0  0  0  0  0  0
  -25.0959   31.1067   -5.1237 H   0  0  0  0  0  0  0  0  0  0  0  0
  -25.7331   28.9929   -3.9076 H   0  0  0  0  0  0  0  0  0  0  0  0
  -27.0273   27.2083   -5.0980 H   0  0  0  0  0  0  0  0  0  0  0  0
  -27.6894   27.5301   -7.5078 H   0  0  0  0  0  0  0  0  0  0  0  0
  -24.4774   34.0998  -12.3160 H   0  0  0  0  0  0  0  0  0  0  0  0
  -25.6618   35.5364  -12.6290 H   0  0  0  0  0  0  0  0  0  0  0  0
  -23.6642   35.2862  -10.4708 H   0  0  0  0  0  0  0  0  0  0  0  0
  -25.5293   39.6385  -12.9592 H   0  0  0  0  0  0  0  0  0  0  0  0
  -27.5888   41.6066  -11.1813 H   0  0  0  0  0  0  0  0  0  0  0  0
  -27.1278   40.4976   -9.8678 H   0  0  0  0  0  0  0  0  0  0  0  0
  -27.1833   42.2520   -9.5728 H   0  0  0  0  0  0  0  0  0  0  0  0
  -24.3307   39.6397   -8.8031 H   0  0  0  0  0  0  0  0  0  0  0  0
  1  2  1  0
  2  3  1  0
  3  4  1  0
  4  5  1  0
  5  6  1  0
  6  7  2  0
  7  8  1  0
  8  9  2  0
  9 10  1  0
  6 10  1  0
  9 11  1  0
 11 12  2  0
 12 13  1  0
 13 14  2  0
  8 14  1  0
  3 15  1  0
 15 16  1  0
 16 17  1  0
 17 18  2  0
 18 19  1  0
 19 20  2  0
 20 21  1  0
 21 22  1  0
 20 23  1  0
 23 24  2  0
 17 24  1  0
  1 25  1  0
  1 26  1  0
  1 27  1  0
  2 28  1  0
  2 29  1  0
  3 30  1  0
  4 31  1  0
  4 32  1  0
  5 33  1  0
 11 34  1  0
 12 35  1  0
 13 36  1  0
 14 37  1  0
 15 38  1  0
 15 39  1  0
 16 40  1  0
 19 41  1  0
 22 42  1  0
 22 43  1  0
 22 44  1  0
 23 45  1  0
M  END
>  <21666828|PCSK9_Human_KD_nM_PREFIX|1>  (1) 
>=

>  <21666828|PCSK9_Human_KD_nM_REMARKS|1>  (1) 
Range >= 2000 nM to < 20000 nM

>  <21666828|PCSK9_Human_KD_nM|1>  (1) 
2000

>  <CHROM.1>  (1) 
177.49961351,90.82441072,-155.33710144,-175.88211846,65.49663090,-101.95021664
-30.19181976,89.96591983

>  <COMPOUND_ID>  (1) 
Example_169

>  <EmbedRMS>  (1) 
0.08432545662923353

>  <GVK_ID>  (1) 
124889524

>  <ISOMER>  (1) 
None

>  <Kd_Range>  (1) 
>= 2000

>  <Name>  (1) 


>  <PAGE>  (1) 
78

>  <REFERENCE>  (1) 
WO 2020/150474 A1

>  <REF_ID>  (1) 
2133368

>  <RI>  (1) 
4.08932e+07

>  <Rbt.Current_Directory>  (1) 
/dev/shm/dwight/Example-169

>  <Rbt.Executable>  (1) 
rbdock ($Id: //depot/dev/client3/rdock/2013.1/src/exe/rbdock.cxx#4 $)

>  <Rbt.Library>  (1) 
libRbt.so (2013.1, Build901 2013/11/27)

>  <Rbt.Parameter_File>  (1) 
dock.prm

>  <Rbt.Receptor>  (1) 
receptor.prm

>  <SCORE>  (1) 
5.88512

>  <SCORE.INTER>  (1) 
1.66055

>  <SCORE.INTER.CONST>  (1) 
1

>  <SCORE.INTER.POLAR>  (1) 
-1.41916

>  <SCORE.INTER.REPUL>  (1) 
0

>  <SCORE.INTER.ROT>  (1) 
8

>  <SCORE.INTER.VDW>  (1) 
-6.91431

>  <SCORE.INTER.norm>  (1) 
0.0691894

>  <SCORE.INTRA>  (1) 
4.22457

>  <SCORE.INTRA.DIHEDRAL>  (1) 
3.33064

>  <SCORE.INTRA.DIHEDRAL.0>  (1) 
11.0893

>  <SCORE.INTRA.POLAR>  (1) 
0

>  <SCORE.INTRA.POLAR.0>  (1) 
0

>  <SCORE.INTRA.REPUL>  (1) 
0

>  <SCORE.INTRA.REPUL.0>  (1) 
0

>  <SCORE.INTRA.VDW>  (1) 
2.55926

>  <SCORE.INTRA.VDW.0>  (1) 
1.21977

>  <SCORE.INTRA.norm>  (1) 
0.176024

>  <SCORE.RESTR>  (1) 
0

>  <SCORE.RESTR.CAVITY>  (1) 
0

>  <SCORE.RESTR.norm>  (1) 
0

>  <SCORE.SYSTEM>  (1) 
0

>  <SCORE.SYSTEM.CONST>  (1) 
0

>  <SCORE.SYSTEM.DIHEDRAL>  (1) 
0

>  <SCORE.SYSTEM.norm>  (1) 
0

>  <SCORE.heavy>  (1) 
24

>  <SCORE.norm>  (1) 
0.245213

>  <TETHERED ATOMS>  (1) 
3,4,15,16,17,5,6

>  <_MOLCOUNT>  (1) 
1

$$$$
