
     RDKit          3D

 58 62  0  0  0  0  0  0  0  0999 V2000
  -26.0819   28.4592   -4.4926 C   0  0  0  0  0  0  0  0  0  0  0  0
  -25.2170   27.7579   -5.9318 S   0  0  0  0  0  0  0  0  0  0  0  0
  -25.6585   29.1200   -7.0118 C   0  0  0  0  0  0  0  0  0  0  0  0
  -26.8310   29.0815   -7.7677 C   0  0  0  0  0  0  0  0  0  0  0  0
  -27.1494   30.1255   -8.5759 N   0  0  0  0  0  0  0  0  0  0  0  0
  -26.3419   31.2185   -8.6630 C   0  0  0  0  0  0  0  0  0  0  0  0
  -26.6893   32.3128   -9.5157 N   0  0  0  0  0  0  0  0  0  0  0  0
  -25.6679   33.1121  -10.1929 C   0  0  0  0  0  0  0  0  0  0  0  0
  -26.2690   34.1379  -11.1842 C   0  0  0  0  0  0  0  0  0  0  0  0
  -27.1909   33.4674  -12.2259 C   0  0  0  0  0  0  0  0  0  0  0  0
  -25.1201   34.8349  -11.9437 C   0  0  0  0  0  0  0  0  0  0  0  0
  -24.4005   35.7665  -11.0848 N   0  0  0  0  0  0  0  0  0  0  0  0
  -24.6366   37.1764  -11.1463 C   0  0  0  0  0  0  0  0  0  0  0  0
  -24.1106   38.0636  -10.2657 N   0  0  0  0  0  0  0  0  0  0  0  0
  -24.4947   39.3282  -10.5737 C   0  0  0  0  0  0  0  0  0  0  0  0
  -25.3147   39.4433  -11.6839 C   0  0  0  0  0  0  0  0  0  0  0  0
  -25.5869   37.9191  -12.3340 S   0  0  0  0  0  0  0  0  0  0  0  0
  -25.7863   40.6737  -12.1320 C   0  0  0  0  0  0  0  0  0  0  0  0
  -25.4206   41.8347  -11.4191 C   0  0  0  0  0  0  0  0  0  0  0  0
  -24.5692   41.7191  -10.2925 C   0  0  0  0  0  0  0  0  0  0  0  0
  -24.1080   40.4632   -9.8637 C   0  0  0  0  0  0  0  0  0  0  0  0
  -25.8886   43.1690  -11.8494 C   0  0  0  0  0  0  0  0  0  0  0  0
  -26.6242   43.8454  -11.0818 O   0  0  0  0  0  0  0  0  0  0  0  0
  -25.5661   43.6960  -13.1394 N   0  0  0  0  0  0  0  0  0  0  0  0
  -24.9573   43.2331  -14.4140 C   0  0  0  0  0  0  0  0  0  0  0  0
  -25.2917   44.4703  -15.1578 C   0  0  0  0  0  0  0  0  0  0  0  0
  -24.2653   45.2666  -15.9017 C   0  0  0  0  0  0  0  0  0  0  0  0
  -25.0396   45.2088  -17.0875 O   0  0  0  0  0  0  0  0  0  0  0  0
  -26.0525   44.4519  -16.4469 C   0  0  0  0  0  0  0  0  0  0  0  0
  -25.8924   44.9366  -13.8862 C   0  0  0  0  0  0  0  0  0  0  0  0
  -25.1986   31.2721   -7.9276 N   0  0  0  0  0  0  0  0  0  0  0  0
  -24.8441   30.2493   -7.1072 C   0  0  0  0  0  0  0  0  0  0  0  0
  -26.2238   27.6833   -3.7403 H   0  0  0  0  0  0  0  0  0  0  0  0
  -25.4875   29.2697   -4.0709 H   0  0  0  0  0  0  0  0  0  0  0  0
  -27.0526   28.8447   -4.8044 H   0  0  0  0  0  0  0  0  0  0  0  0
  -27.5057   28.2264   -7.7263 H   0  0  0  0  0  0  0  0  0  0  0  0
  -27.6690   32.5240   -9.6413 H   0  0  0  0  0  0  0  0  0  0  0  0
  -25.1819   33.6799   -9.3994 H   0  0  0  0  0  0  0  0  0  0  0  0
  -25.0936   32.3963  -10.7812 H   0  0  0  0  0  0  0  0  0  0  0  0
  -26.8590   34.8499  -10.6071 H   0  0  0  0  0  0  0  0  0  0  0  0
  -27.9685   32.9019  -11.7124 H   0  0  0  0  0  0  0  0  0  0  0  0
  -27.6510   34.2333  -12.8503 H   0  0  0  0  0  0  0  0  0  0  0  0
  -26.6040   32.7938  -12.8503 H   0  0  0  0  0  0  0  0  0  0  0  0
  -24.3926   34.0678  -12.2089 H   0  0  0  0  0  0  0  0  0  0  0  0
  -25.5708   35.4509  -12.7219 H   0  0  0  0  0  0  0  0  0  0  0  0
  -23.7161   35.4239  -10.4257 H   0  0  0  0  0  0  0  0  0  0  0  0
  -26.4232   40.7265  -13.0150 H   0  0  0  0  0  0  0  0  0  0  0  0
  -24.2637   42.6116   -9.7464 H   0  0  0  0  0  0  0  0  0  0  0  0
  -23.4594   40.3707   -8.9926 H   0  0  0  0  0  0  0  0  0  0  0  0
  -23.8764   43.1514  -14.3002 H   0  0  0  0  0  0  0  0  0  0  0  0
  -25.5280   42.3955  -14.8148 H   0  0  0  0  0  0  0  0  0  0  0  0
  -24.2238   46.2925  -15.5357 H   0  0  0  0  0  0  0  0  0  0  0  0
  -23.3453   44.6967  -16.0317 H   0  0  0  0  0  0  0  0  0  0  0  0
  -26.9654   45.0427  -16.3721 H   0  0  0  0  0  0  0  0  0  0  0  0
  -26.0865   43.4471  -16.8680 H   0  0  0  0  0  0  0  0  0  0  0  0
  -25.3143   45.7708  -13.4886 H   0  0  0  0  0  0  0  0  0  0  0  0
  -26.9728   45.0270  -13.9994 H   0  0  0  0  0  0  0  0  0  0  0  0
  -23.9205   30.3334   -6.5344 H   0  0  0  0  0  0  0  0  0  0  0  0
  1  2  1  0
  2  3  1  0
  3  4  2  0
  4  5  1  0
  5  6  2  0
  6  7  1  0
  7  8  1  0
  9  8  1  0
  9 10  1  0
  9 11  1  0
 11 12  1  0
 12 13  1  0
 13 14  2  0
 14 15  1  0
 15 16  2  0
 16 17  1  0
 13 17  1  0
 16 18  1  0
 18 19  2  0
 19 20  1  0
 20 21  2  0
 15 21  1  0
 19 22  1  0
 22 23  2  0
 22 24  1  0
 24 25  1  0
 25 26  1  0
 26 27  1  0
 27 28  1  0
 28 29  1  0
 26 29  1  0
 26 30  1  0
 24 30  1  0
  6 31  1  0
 31 32  2  0
  3 32  1  0
  1 33  1  0
  1 34  1  0
  1 35  1  0
  4 36  1  0
  7 37  1  0
  8 38  1  0
  8 39  1  0
  9 40  1  0
 10 41  1  0
 10 42  1  0
 10 43  1  0
 11 44  1  0
 11 45  1  0
 12 46  1  0
 18 47  1  0
 20 48  1  0
 21 49  1  0
 25 50  1  0
 25 51  1  0
 27 52  1  0
 27 53  1  0
 29 54  1  0
 29 55  1  0
 30 56  1  0
 30 57  1  0
 32 58  1  0
M  END
>  <21666828|PCSK9_Human_KD_nM_PREFIX|1>  (1) 
<

>  <21666828|PCSK9_Human_KD_nM|1>  (1) 
200

>  <CHROM.1>  (1) 
-90.37409425,-147.07508692,173.58103988,-55.21147454,-72.49229014,-101.02521113
172.00622779,117.55739865

>  <COMPOUND_ID>  (1) 
Example_19

>  <EmbedRMS>  (1) 
0.08748139644487178

>  <GVK_ID>  (1) 
124889465

>  <ISOMER>  (1) 
None

>  <Kd_Range>  (1) 
< 200

>  <Name>  (1) 


>  <PAGE>  (1) 
57

>  <REFERENCE>  (1) 
WO 2020/150474 A1

>  <REF_ID>  (1) 
2133368

>  <RI>  (1) 
3.15174e+07

>  <Rbt.Current_Directory>  (1) 
/dev/shm/dwight/Example-19

>  <Rbt.Executable>  (1) 
rbdock ($Id: //depot/dev/client3/rdock/2013.1/src/exe/rbdock.cxx#4 $)

>  <Rbt.Library>  (1) 
libRbt.so (2013.1, Build901 2013/11/27)

>  <Rbt.Parameter_File>  (1) 
dock.prm

>  <Rbt.Receptor>  (1) 
receptor.prm

>  <SCORE>  (1) 
28.3733

>  <SCORE.INTER>  (1) 
25.2193

>  <SCORE.INTER.CONST>  (1) 
1

>  <SCORE.INTER.POLAR>  (1) 
-2.29123

>  <SCORE.INTER.REPUL>  (1) 
0.366983

>  <SCORE.INTER.ROT>  (1) 
8

>  <SCORE.INTER.VDW>  (1) 
17.7745

>  <SCORE.INTER.norm>  (1) 
0.788102

>  <SCORE.INTRA>  (1) 
3.15406

>  <SCORE.INTRA.DIHEDRAL>  (1) 
10.2136

>  <SCORE.INTRA.DIHEDRAL.0>  (1) 
13.2106

>  <SCORE.INTRA.POLAR>  (1) 
0

>  <SCORE.INTRA.POLAR.0>  (1) 
0

>  <SCORE.INTRA.REPUL>  (1) 
0

>  <SCORE.INTRA.REPUL.0>  (1) 
0

>  <SCORE.INTRA.VDW>  (1) 
-1.95273

>  <SCORE.INTRA.VDW.0>  (1) 
2.26528

>  <SCORE.INTRA.norm>  (1) 
0.0985643

>  <SCORE.RESTR>  (1) 
0

>  <SCORE.RESTR.CAVITY>  (1) 
0

>  <SCORE.RESTR.norm>  (1) 
0

>  <SCORE.SYSTEM>  (1) 
0

>  <SCORE.SYSTEM.CONST>  (1) 
0

>  <SCORE.SYSTEM.DIHEDRAL>  (1) 
0

>  <SCORE.SYSTEM.norm>  (1) 
0

>  <SCORE.heavy>  (1) 
32

>  <SCORE.norm>  (1) 
0.886666

>  <TETHERED ATOMS>  (1) 
9,8,11,12,13,7,6

>  <_MOLCOUNT>  (1) 
1

$$$$
