
     RDKit          3D

 40 42  0  0  0  0  0  0  0  0999 V2000
  -26.1923   32.1461   -0.7287 C   0  0  0  0  0  0  0  0  0  0  0  0
  -27.2536   30.6666   -0.7500 S   0  0  0  0  0  0  0  0  0  0  0  0
  -27.5380   30.2496   -2.4679 C   0  0  0  0  0  0  0  0  0  0  0  0
  -27.0875   29.0460   -2.9798 C   0  0  0  0  0  0  0  0  0  0  0  0
  -27.3183   28.7666   -4.2716 N   0  0  0  0  0  0  0  0  0  0  0  0
  -27.9661   29.5878   -5.1123 C   0  0  0  0  0  0  0  0  0  0  0  0
  -28.1676   29.2160   -6.4677 N   0  0  0  0  0  0  0  0  0  0  0  0
  -27.0520   29.3290   -7.4380 C   0  0  0  0  0  0  0  0  0  0  0  0
  -25.8360   29.3450   -6.7340 C   0  0  0  0  0  0  0  0  0  0  0  0
  -25.5290   28.4460   -5.6990 O   0  0  0  0  0  0  0  0  0  0  0  0
  -24.8940   30.3140   -7.0830 C   0  0  0  0  0  0  0  0  0  0  0  0
  -25.3643   31.6605   -7.2235 N   0  0  0  0  0  0  0  0  0  0  0  0
  -25.2912   32.3127   -8.4931 C   0  0  0  0  0  0  0  0  0  0  0  0
  -24.7397   31.8012   -9.6327 N   0  0  0  0  0  0  0  0  0  0  0  0
  -24.8510   32.6848  -10.6112 C   0  0  0  0  0  0  0  0  0  0  0  0
  -25.4918   33.7888  -10.0765 C   0  0  0  0  0  0  0  0  0  0  0  0
  -25.7198   33.4995   -8.8297 O   0  0  0  0  0  0  0  0  0  0  0  0
  -25.7432   34.8846  -10.8931 C   0  0  0  0  0  0  0  0  0  0  0  0
  -25.3765   34.9083  -12.2141 C   0  0  0  0  0  0  0  0  0  0  0  0
  -24.7359   33.8117  -12.7596 C   0  0  0  0  0  0  0  0  0  0  0  0
  -24.4867   32.7241  -11.9483 C   0  0  0  0  0  0  0  0  0  0  0  0
  -28.4043   30.7526   -4.6243 N   0  0  0  0  0  0  0  0  0  0  0  0
  -28.2021   31.0929   -3.3277 C   0  0  0  0  0  0  0  0  0  0  0  0
  -25.8703   32.3769   -1.7441 H   0  0  0  0  0  0  0  0  0  0  0  0
  -26.7525   32.9892   -0.3247 H   0  0  0  0  0  0  0  0  0  0  0  0
  -25.3188   31.9576   -0.1045 H   0  0  0  0  0  0  0  0  0  0  0  0
  -26.5526   28.3202   -2.3673 H   0  0  0  0  0  0  0  0  0  0  0  0
  -29.0818   28.8796   -6.7348 H   0  0  0  0  0  0  0  0  0  0  0  0
  -27.0390   28.4193   -8.0384 H   0  0  0  0  0  0  0  0  0  0  0  0
  -27.1301   30.3016   -7.9238 H   0  0  0  0  0  0  0  0  0  0  0  0
  -26.3827   28.4504   -6.4358 H   0  0  0  0  0  0  0  0  0  0  0  0
  -25.0780   28.9136   -4.9922 H   0  0  0  0  0  0  0  0  0  0  0  0
  -24.1959   30.3318   -6.2461 H   0  0  0  0  0  0  0  0  0  0  0  0
  -24.5497   30.0175   -8.0738 H   0  0  0  0  0  0  0  0  0  0  0  0
  -25.7474   32.1499   -6.4274 H   0  0  0  0  0  0  0  0  0  0  0  0
  -26.2473   35.7592  -10.4817 H   0  0  0  0  0  0  0  0  0  0  0  0
  -25.5915   35.7870  -12.8222 H   0  0  0  0  0  0  0  0  0  0  0  0
  -24.4336   33.8047  -13.8069 H   0  0  0  0  0  0  0  0  0  0  0  0
  -23.9815   31.8608  -12.3813 H   0  0  0  0  0  0  0  0  0  0  0  0
  -28.5769   32.0531   -2.9734 H   0  0  0  0  0  0  0  0  0  0  0  0
  1  2  1  0
  2  3  1  0
  3  4  2  0
  4  5  1  0
  5  6  2  0
  6  7  1  0
  7  8  1  0
  8  9  1  0
  9 10  1  0
  9 11  1  0
 11 12  1  0
 12 13  1  0
 13 14  2  0
 14 15  1  0
 15 16  2  0
 16 17  1  0
 13 17  1  0
 16 18  1  0
 18 19  2  0
 19 20  1  0
 20 21  2  0
 15 21  1  0
  6 22  1  0
 22 23  2  0
  3 23  1  0
  1 24  1  0
  1 25  1  0
  1 26  1  0
  4 27  1  0
  7 28  1  0
  8 29  1  0
  8 30  1  0
  9 31  1  0
 10 32  1  0
 11 33  1  0
 11 34  1  0
 12 35  1  0
 18 36  1  0
 19 37  1  0
 20 38  1  0
 21 39  1  0
 23 40  1  0
M  END
>  <21666828|PCSK9_Human_KD_nM_PREFIX|1>  (1) 
>=

>  <21666828|PCSK9_Human_KD_nM_REMARKS|1>  (1) 
Range >= 2000 nM to < 20000 nM

>  <21666828|PCSK9_Human_KD_nM|1>  (1) 
2000

>  <CHROM.1>  (1) 
116.90684836,-77.74989678,21.09507321,46.34798574,-139.38313696,47.21430593
-116.66431176,-3.51307975

>  <COMPOUND_ID>  (1) 
Example_174

>  <GVK_ID>  (1) 
124889529

>  <ISOMER>  (1) 
None

>  <Kd_Range>  (1) 
>= 2000

>  <Name>  (1) 


>  <PAGE>  (1) 
79

>  <REFERENCE>  (1) 
WO 2020/150474 A1

>  <REF_ID>  (1) 
2133368

>  <RI>  (1) 
2.04664e+07

>  <Rbt.Current_Directory>  (1) 
/dev/shm/dwight/Example-174

>  <Rbt.Executable>  (1) 
rbdock ($Id: //depot/dev/client3/rdock/2013.1/src/exe/rbdock.cxx#4 $)

>  <Rbt.Library>  (1) 
libRbt.so (2013.1, Build901 2013/11/27)

>  <Rbt.Parameter_File>  (1) 
dock.prm

>  <Rbt.Receptor>  (1) 
receptor.prm

>  <SCORE>  (1) 
35.6739

>  <SCORE.INTER>  (1) 
34.9275

>  <SCORE.INTER.CONST>  (1) 
1

>  <SCORE.INTER.POLAR>  (1) 
0

>  <SCORE.INTER.REPUL>  (1) 
0.090045

>  <SCORE.INTER.ROT>  (1) 
7

>  <SCORE.INTER.VDW>  (1) 
22.0773

>  <SCORE.INTER.norm>  (1) 
1.51859

>  <SCORE.INTRA>  (1) 
0.74639

>  <SCORE.INTRA.DIHEDRAL>  (1) 
12.2348

>  <SCORE.INTRA.DIHEDRAL.0>  (1) 
14.3489

>  <SCORE.INTRA.POLAR>  (1) 
0

>  <SCORE.INTRA.POLAR.0>  (1) 
0

>  <SCORE.INTRA.REPUL>  (1) 
-0.165417

>  <SCORE.INTRA.REPUL.0>  (1) 
0.165417

>  <SCORE.INTRA.VDW>  (1) 
-4.54393

>  <SCORE.INTRA.VDW.0>  (1) 
25.4645

>  <SCORE.INTRA.norm>  (1) 
0.0324517

>  <SCORE.RESTR>  (1) 
0

>  <SCORE.RESTR.CAVITY>  (1) 
0

>  <SCORE.RESTR.norm>  (1) 
0

>  <SCORE.SYSTEM>  (1) 
0

>  <SCORE.SYSTEM.CONST>  (1) 
0

>  <SCORE.SYSTEM.DIHEDRAL>  (1) 
0

>  <SCORE.SYSTEM.norm>  (1) 
0

>  <SCORE.heavy>  (1) 
23

>  <SCORE.norm>  (1) 
1.55104

>  <TETHERED ATOMS>  (1) 
10,9,8,11

>  <_MOLCOUNT>  (1) 
1

$$$$
