
     RDKit          3D

 53 55  0  0  0  0  0  0  0  0999 V2000
  -27.2469   29.3565   -3.9539 C   0  0  0  0  0  0  0  0  0  0  0  0
  -25.6052   29.0350   -4.6698 S   0  0  0  0  0  0  0  0  0  0  0  0
  -25.9295   29.9965   -6.1487 C   0  0  0  0  0  0  0  0  0  0  0  0
  -26.7586   29.5007   -7.1560 C   0  0  0  0  0  0  0  0  0  0  0  0
  -26.9876   30.2426   -8.2705 N   0  0  0  0  0  0  0  0  0  0  0  0
  -26.4192   31.4686   -8.4269 C   0  0  0  0  0  0  0  0  0  0  0  0
  -26.6775   32.2244   -9.6132 N   0  0  0  0  0  0  0  0  0  0  0  0
  -25.6678   33.1101  -10.1932 C   0  0  0  0  0  0  0  0  0  0  0  0
  -26.2688   34.1347  -11.1851 C   0  0  0  0  0  0  0  0  0  0  0  0
  -27.1891   33.4635  -12.2278 C   0  0  0  0  0  0  0  0  0  0  0  0
  -25.1196   34.8325  -11.9436 C   0  0  0  0  0  0  0  0  0  0  0  0
  -24.5270   35.8998  -11.1480 N   0  0  0  0  0  0  0  0  0  0  0  0
  -24.7577   37.2841  -11.4350 C   0  0  0  0  0  0  0  0  0  0  0  0
  -24.3698   38.2726  -10.5934 N   0  0  0  0  0  0  0  0  0  0  0  0
  -24.7047   39.4903  -11.0912 C   0  0  0  0  0  0  0  0  0  0  0  0
  -25.3503   39.4725  -12.3156 C   0  0  0  0  0  0  0  0  0  0  0  0
  -25.5270   37.8834  -12.8259 S   0  0  0  0  0  0  0  0  0  0  0  0
  -25.7562   40.6393  -12.9563 C   0  0  0  0  0  0  0  0  0  0  0  0
  -25.5051   41.8784  -12.3269 C   0  0  0  0  0  0  0  0  0  0  0  0
  -24.8334   41.8968  -11.0776 C   0  0  0  0  0  0  0  0  0  0  0  0
  -24.4351   40.7009  -10.4561 C   0  0  0  0  0  0  0  0  0  0  0  0
  -25.9215   43.1377  -12.9893 C   0  0  0  0  0  0  0  0  0  0  0  0
  -26.1950   43.1267  -14.2211 O   0  0  0  0  0  0  0  0  0  0  0  0
  -26.0360   44.3641  -12.2507 N   0  0  0  0  0  0  0  0  0  0  0  0
  -26.2863   45.6362  -12.9298 C   0  0  0  0  0  0  0  0  0  0  0  0
  -25.8131   46.8245  -12.0890 C   0  0  0  0  0  0  0  0  0  0  0  0
  -24.4123   46.8993  -12.0865 O   0  0  0  0  0  0  0  0  0  0  0  0
  -25.6038   31.9631   -7.4549 N   0  0  0  0  0  0  0  0  0  0  0  0
  -25.3492   31.2532   -6.3255 C   0  0  0  0  0  0  0  0  0  0  0  0
  -27.4405   28.6423   -3.1535 H   0  0  0  0  0  0  0  0  0  0  0  0
  -27.2760   30.3693   -3.5520 H   0  0  0  0  0  0  0  0  0  0  0  0
  -28.0076   29.2505   -4.7272 H   0  0  0  0  0  0  0  0  0  0  0  0
  -27.2326   28.5228   -7.0714 H   0  0  0  0  0  0  0  0  0  0  0  0
  -27.5848   32.1315  -10.0470 H   0  0  0  0  0  0  0  0  0  0  0  0
  -25.2702   33.6752   -9.3502 H   0  0  0  0  0  0  0  0  0  0  0  0
  -25.0131   32.4542  -10.7671 H   0  0  0  0  0  0  0  0  0  0  0  0
  -26.8602   34.8459  -10.6084 H   0  0  0  0  0  0  0  0  0  0  0  0
  -27.9663   32.8967  -11.7151 H   0  0  0  0  0  0  0  0  0  0  0  0
  -27.6497   34.2291  -12.8521 H   0  0  0  0  0  0  0  0  0  0  0  0
  -26.6009   32.7910  -12.8521 H   0  0  0  0  0  0  0  0  0  0  0  0
  -24.3249   34.0986  -12.0777 H   0  0  0  0  0  0  0  0  0  0  0  0
  -25.5555   35.3283  -12.8109 H   0  0  0  0  0  0  0  0  0  0  0  0
  -23.9317   35.6706  -10.3650 H   0  0  0  0  0  0  0  0  0  0  0  0
  -26.2564   40.5843  -13.9231 H   0  0  0  0  0  0  0  0  0  0  0  0
  -24.6196   42.8461  -10.5867 H   0  0  0  0  0  0  0  0  0  0  0  0
  -23.9235   40.7122   -9.4937 H   0  0  0  0  0  0  0  0  0  0  0  0
  -25.9398   44.3318  -11.2457 H   0  0  0  0  0  0  0  0  0  0  0  0
  -25.6702   45.6131  -13.8287 H   0  0  0  0  0  0  0  0  0  0  0  0
  -27.3703   45.7136  -13.0138 H   0  0  0  0  0  0  0  0  0  0  0  0
  -26.1432   47.7394  -12.5811 H   0  0  0  0  0  0  0  0  0  0  0  0
  -26.0870   46.6346  -11.0512 H   0  0  0  0  0  0  0  0  0  0  0  0
  -24.1015   47.1104  -12.9699 H   0  0  0  0  0  0  0  0  0  0  0  0
  -24.6895   31.6852   -5.5730 H   0  0  0  0  0  0  0  0  0  0  0  0
  1  2  1  0
  2  3  1  0
  3  4  2  0
  4  5  1  0
  5  6  2  0
  6  7  1  0
  7  8  1  0
  9  8  1  0
  9 10  1  0
  9 11  1  0
 11 12  1  0
 12 13  1  0
 13 14  2  0
 14 15  1  0
 15 16  2  0
 16 17  1  0
 13 17  1  0
 16 18  1  0
 18 19  2  0
 19 20  1  0
 20 21  2  0
 15 21  1  0
 19 22  1  0
 22 23  2  0
 22 24  1  0
 24 25  1  0
 25 26  1  0
 26 27  1  0
  6 28  1  0
 28 29  2  0
  3 29  1  0
  1 30  1  0
  1 31  1  0
  1 32  1  0
  4 33  1  0
  7 34  1  0
  8 35  1  0
  8 36  1  0
  9 37  1  0
 10 38  1  0
 10 39  1  0
 10 40  1  0
 11 41  1  0
 11 42  1  0
 12 43  1  0
 18 44  1  0
 20 45  1  0
 21 46  1  0
 24 47  1  0
 25 48  1  0
 25 49  1  0
 26 50  1  0
 26 51  1  0
 27 52  1  0
 29 53  1  0
M  END
>  <21666828|PCSK9_Human_KD_nM_PREFIX|1>  (1) 
<

>  <21666828|PCSK9_Human_KD_nM|1>  (1) 
200

>  <CHROM.1>  (1) 
-74.89812260,-146.90975711,-162.49238490,-49.71297261,-80.72988039,-106.26912749
170.37333855,-16.93956973,-156.64925495,73.03517865,66.52673734

>  <COMPOUND_ID>  (1) 
Example_15

>  <EmbedRMS>  (1) 
0.08852365963853934

>  <GVK_ID>  (1) 
124889461

>  <ISOMER>  (1) 
None

>  <Kd_Range>  (1) 
< 200

>  <Name>  (1) 


>  <PAGE>  (1) 
56

>  <REFERENCE>  (1) 
WO 2020/150474 A1

>  <REF_ID>  (1) 
2133368

>  <RI>  (1) 
4.21875e+07

>  <Rbt.Current_Directory>  (1) 
/dev/shm/dwight/Example-15

>  <Rbt.Executable>  (1) 
rbdock ($Id: //depot/dev/client3/rdock/2013.1/src/exe/rbdock.cxx#4 $)

>  <Rbt.Library>  (1) 
libRbt.so (2013.1, Build901 2013/11/27)

>  <Rbt.Parameter_File>  (1) 
dock.prm

>  <Rbt.Receptor>  (1) 
receptor.prm

>  <SCORE>  (1) 
26.237

>  <SCORE.INTER>  (1) 
22.6679

>  <SCORE.INTER.CONST>  (1) 
1

>  <SCORE.INTER.POLAR>  (1) 
-3.24195

>  <SCORE.INTER.REPUL>  (1) 
0.00221635

>  <SCORE.INTER.ROT>  (1) 
10

>  <SCORE.INTER.VDW>  (1) 
18.2794

>  <SCORE.INTER.norm>  (1) 
0.781652

>  <SCORE.INTRA>  (1) 
3.56908

>  <SCORE.INTRA.DIHEDRAL>  (1) 
1.6289

>  <SCORE.INTRA.DIHEDRAL.0>  (1) 
17.0485

>  <SCORE.INTRA.POLAR>  (1) 
0

>  <SCORE.INTRA.POLAR.0>  (1) 
0

>  <SCORE.INTRA.REPUL>  (1) 
0

>  <SCORE.INTRA.REPUL.0>  (1) 
0

>  <SCORE.INTRA.VDW>  (1) 
2.75463

>  <SCORE.INTRA.VDW.0>  (1) 
2.89635

>  <SCORE.INTRA.norm>  (1) 
0.123072

>  <SCORE.RESTR>  (1) 
0

>  <SCORE.RESTR.CAVITY>  (1) 
0

>  <SCORE.RESTR.norm>  (1) 
0

>  <SCORE.SYSTEM>  (1) 
0

>  <SCORE.SYSTEM.CONST>  (1) 
0

>  <SCORE.SYSTEM.DIHEDRAL>  (1) 
0

>  <SCORE.SYSTEM.norm>  (1) 
0

>  <SCORE.heavy>  (1) 
29

>  <SCORE.norm>  (1) 
0.904724

>  <TETHERED ATOMS>  (1) 
9,8,11,12,13,7,6

>  <_MOLCOUNT>  (1) 
1

$$$$
