
     RDKit          3D

 44 46  0  0  0  0  0  0  0  0999 V2000
  -25.2150   26.9410   -6.3657 C   0  0  0  0  0  0  0  0  0  0  0  0
  -25.4984   28.3368   -5.2333 S   0  0  0  0  0  0  0  0  0  0  0  0
  -25.8461   29.4959   -6.5570 C   0  0  0  0  0  0  0  0  0  0  0  0
  -24.8803   30.4114   -6.9771 C   0  0  0  0  0  0  0  0  0  0  0  0
  -25.1653   31.2839   -7.9782 N   0  0  0  0  0  0  0  0  0  0  0  0
  -26.3855   31.2854   -8.5828 C   0  0  0  0  0  0  0  0  0  0  0  0
  -26.6742   32.2080   -9.6367 N   0  0  0  0  0  0  0  0  0  0  0  0
  -25.6683   33.1492  -10.1280 C   0  0  0  0  0  0  0  0  0  0  0  0
  -26.2742   34.1101  -11.1632 C   0  0  0  0  0  0  0  0  0  0  0  0
  -27.3181   35.0445  -10.5331 C   0  0  0  0  0  0  0  0  0  0  0  0
  -25.1662   34.8464  -11.9396 C   0  0  0  0  0  0  0  0  0  0  0  0
  -24.2342   35.5292  -11.0471 N   0  0  0  0  0  0  0  0  0  0  0  0
  -24.2833   36.9449  -10.8290 C   0  0  0  0  0  0  0  0  0  0  0  0
  -23.6517   37.4785   -9.7483 N   0  0  0  0  0  0  0  0  0  0  0  0
  -23.6687   38.8154   -9.5079 C   0  0  0  0  0  0  0  0  0  0  0  0
  -24.3428   39.6705  -10.3841 C   0  0  0  0  0  0  0  0  0  0  0  0
  -24.3901   41.0564  -10.1760 C   0  0  0  0  0  0  0  0  0  0  0  0
  -25.0768   41.8724  -11.0818 C   0  0  0  0  0  0  0  0  0  0  0  0
  -25.7149   41.3094  -12.1929 C   0  0  0  0  0  0  0  0  0  0  0  0
  -25.6698   39.9272  -12.4049 C   0  0  0  0  0  0  0  0  0  0  0  0
  -24.9853   39.1045  -11.5032 C   0  0  0  0  0  0  0  0  0  0  0  0
  -24.9372   37.7618  -11.7002 N   0  0  0  0  0  0  0  0  0  0  0  0
  -27.3378   30.4010   -8.1811 N   0  0  0  0  0  0  0  0  0  0  0  0
  -27.0929   29.5121   -7.1838 C   0  0  0  0  0  0  0  0  0  0  0  0
  -24.7964   26.1017   -5.8102 H   0  0  0  0  0  0  0  0  0  0  0  0
  -26.1608   26.6420   -6.8177 H   0  0  0  0  0  0  0  0  0  0  0  0
  -24.5181   27.2430   -7.1475 H   0  0  0  0  0  0  0  0  0  0  0  0
  -23.8921   30.4454   -6.5183 H   0  0  0  0  0  0  0  0  0  0  0  0
  -27.6005   32.1947  -10.0391 H   0  0  0  0  0  0  0  0  0  0  0  0
  -25.3777   33.7450   -9.2627 H   0  0  0  0  0  0  0  0  0  0  0  0
  -24.9261   32.5408  -10.6448 H   0  0  0  0  0  0  0  0  0  0  0  0
  -26.8274   33.5241  -11.8971 H   0  0  0  0  0  0  0  0  0  0  0  0
  -27.2509   34.9844   -9.4468 H   0  0  0  0  0  0  0  0  0  0  0  0
  -27.1285   36.0692  -10.8527 H   0  0  0  0  0  0  0  0  0  0  0  0
  -28.3156   34.7429  -10.8527 H   0  0  0  0  0  0  0  0  0  0  0  0
  -24.5716   34.0885  -12.4495 H   0  0  0  0  0  0  0  0  0  0  0  0
  -25.6466   35.6390  -12.5131 H   0  0  0  0  0  0  0  0  0  0  0  0
  -23.5254   34.9997  -10.5600 H   0  0  0  0  0  0  0  0  0  0  0  0
  -23.1506   39.1954   -8.6275 H   0  0  0  0  0  0  0  0  0  0  0  0
  -23.8942   41.4986   -9.3119 H   0  0  0  0  0  0  0  0  0  0  0  0
  -25.1146   42.9499  -10.9215 H   0  0  0  0  0  0  0  0  0  0  0  0
  -26.2486   41.9494  -12.8954 H   0  0  0  0  0  0  0  0  0  0  0  0
  -26.1675   39.4919  -13.2714 H   0  0  0  0  0  0  0  0  0  0  0  0
  -27.8846   28.8224   -6.8910 H   0  0  0  0  0  0  0  0  0  0  0  0
  1  2  1  0
  2  3  1  0
  3  4  2  0
  4  5  1  0
  5  6  2  0
  6  7  1  0
  7  8  1  0
  8  9  1  0
  9 10  1  0
  9 11  1  0
 11 12  1  0
 12 13  1  0
 13 14  2  0
 14 15  1  0
 15 16  2  0
 16 17  1  0
 17 18  2  0
 18 19  1  0
 19 20  2  0
 20 21  1  0
 16 21  1  0
 21 22  2  0
 13 22  1  0
  6 23  1  0
 23 24  2  0
  3 24  1  0
  1 25  1  0
  1 26  1  0
  1 27  1  0
  4 28  1  0
  7 29  1  0
  8 30  1  0
  8 31  1  0
  9 32  1  0
 10 33  1  0
 10 34  1  0
 10 35  1  0
 11 36  1  0
 11 37  1  0
 12 38  1  0
 15 39  1  0
 17 40  1  0
 18 41  1  0
 19 42  1  0
 20 43  1  0
 24 44  1  0
M  END
>  <21666828|PCSK9_Human_KD_nM_PREFIX|1>  (1) 
>=

>  <21666828|PCSK9_Human_KD_nM_REMARKS|1>  (1) 
Range >= 2000 nM to < 20000 nM

>  <21666828|PCSK9_Human_KD_nM|1>  (1) 
2000

>  <CHROM.1>  (1) 
-101.71310019,1.82635723,-174.63315983,66.42850294,-54.45271144,-102.59720500
162.61509735

>  <COMPOUND_ID>  (1) 
Example_103

>  <EmbedRMS>  (1) 
0.07543270291387912

>  <GVK_ID>  (1) 
124889513

>  <ISOMER>  (1) 
None

>  <Kd_Range>  (1) 
>= 2000

>  <Name>  (1) 


>  <PAGE>  (1) 
74

>  <REFERENCE>  (1) 
WO 2020/150474 A1

>  <REF_ID>  (1) 
2133368

>  <RI>  (1) 
4.36293e+07

>  <Rbt.Current_Directory>  (1) 
/dev/shm/dwight/Example-103

>  <Rbt.Executable>  (1) 
rbdock ($Id: //depot/dev/client3/rdock/2013.1/src/exe/rbdock.cxx#4 $)

>  <Rbt.Library>  (1) 
libRbt.so (2013.1, Build901 2013/11/27)

>  <Rbt.Parameter_File>  (1) 
dock.prm

>  <Rbt.Receptor>  (1) 
receptor.prm

>  <SCORE>  (1) 
4.69837

>  <SCORE.INTER>  (1) 
8.68576

>  <SCORE.INTER.CONST>  (1) 
1

>  <SCORE.INTER.POLAR>  (1) 
-1.72753

>  <SCORE.INTER.REPUL>  (1) 
0

>  <SCORE.INTER.ROT>  (1) 
7

>  <SCORE.INTER.VDW>  (1) 
2.15937

>  <SCORE.INTER.norm>  (1) 
0.361907

>  <SCORE.INTRA>  (1) 
-3.9874

>  <SCORE.INTRA.DIHEDRAL>  (1) 
-0.21738

>  <SCORE.INTRA.DIHEDRAL.0>  (1) 
9.10771

>  <SCORE.INTRA.POLAR>  (1) 
0

>  <SCORE.INTRA.POLAR.0>  (1) 
0

>  <SCORE.INTRA.REPUL>  (1) 
0

>  <SCORE.INTRA.REPUL.0>  (1) 
0

>  <SCORE.INTRA.VDW>  (1) 
-3.87871

>  <SCORE.INTRA.VDW.0>  (1) 
4.06938

>  <SCORE.INTRA.norm>  (1) 
-0.166142

>  <SCORE.RESTR>  (1) 
0

>  <SCORE.RESTR.CAVITY>  (1) 
0

>  <SCORE.RESTR.norm>  (1) 
0

>  <SCORE.SYSTEM>  (1) 
0

>  <SCORE.SYSTEM.CONST>  (1) 
0

>  <SCORE.SYSTEM.DIHEDRAL>  (1) 
0

>  <SCORE.SYSTEM.norm>  (1) 
0

>  <SCORE.heavy>  (1) 
24

>  <SCORE.norm>  (1) 
0.195765

>  <TETHERED ATOMS>  (1) 
9,8,11,12,13,7,6

>  <_MOLCOUNT>  (1) 
1

$$$$
