
     RDKit          3D

 51 53  0  0  0  0  0  0  0  0999 V2000
  -24.8438   26.8339   -6.6977 C   0  0  0  0  0  0  0  0  0  0  0  0
  -25.3260   28.1113   -5.4949 S   0  0  0  0  0  0  0  0  0  0  0  0
  -25.7244   29.3205   -6.7582 C   0  0  0  0  0  0  0  0  0  0  0  0
  -26.9240   29.2444   -7.4671 C   0  0  0  0  0  0  0  0  0  0  0  0
  -27.2086   30.1727   -8.4167 N   0  0  0  0  0  0  0  0  0  0  0  0
  -26.3411   31.1858   -8.6913 C   0  0  0  0  0  0  0  0  0  0  0  0
  -26.6513   32.1574   -9.6935 N   0  0  0  0  0  0  0  0  0  0  0  0
  -25.6697   33.1509  -10.1298 C   0  0  0  0  0  0  0  0  0  0  0  0
  -26.2827   34.1091  -11.1653 C   0  0  0  0  0  0  0  0  0  0  0  0
  -25.1711   34.8539  -11.9350 C   0  0  0  0  0  0  0  0  0  0  0  0
  -24.5028   35.8462  -11.1002 N   0  0  0  0  0  0  0  0  0  0  0  0
  -24.6620   37.2487  -11.3333 C   0  0  0  0  0  0  0  0  0  0  0  0
  -24.2900   38.2024  -10.4447 N   0  0  0  0  0  0  0  0  0  0  0  0
  -24.5883   39.4390  -10.9166 C   0  0  0  0  0  0  0  0  0  0  0  0
  -25.1990   39.4658  -12.1600 C   0  0  0  0  0  0  0  0  0  0  0  0
  -25.3925   37.8939  -12.7174 S   0  0  0  0  0  0  0  0  0  0  0  0
  -25.5634   40.6578  -12.7795 C   0  0  0  0  0  0  0  0  0  0  0  0
  -25.2893   41.8662  -12.1120 C   0  0  0  0  0  0  0  0  0  0  0  0
  -24.6718   41.8455  -10.8412 C   0  0  0  0  0  0  0  0  0  0  0  0
  -24.3163   40.6270  -10.2387 C   0  0  0  0  0  0  0  0  0  0  0  0
  -25.7437   43.4004  -12.8460 S   0  0  0  0  0  0  0  0  0  0  0  0
  -24.7208   44.6572  -12.2448 N   0  0  0  0  0  0  0  0  0  0  0  0
  -27.1752   43.7185  -12.5158 O   0  0  0  0  0  0  0  0  0  0  0  0
  -25.6033   43.3106  -14.3398 O   0  0  0  0  0  0  0  0  0  0  0  0
  -27.3530   35.0235  -10.5168 C   0  0  0  0  0  0  0  0  0  0  0  0
  -27.9006   36.0655  -11.4545 C   0  0  0  0  0  0  0  0  0  0  0  0
  -27.9993   35.7889  -12.8515 N   0  0  0  0  0  0  0  0  0  0  0  0
  -28.2016   37.2129  -11.0280 O   0  0  0  0  0  0  0  0  0  0  0  0
  -25.1701   31.2751   -8.0049 N   0  0  0  0  0  0  0  0  0  0  0  0
  -24.8476   30.3670   -7.0476 C   0  0  0  0  0  0  0  0  0  0  0  0
  -24.0765   26.1947   -6.2609 H   0  0  0  0  0  0  0  0  0  0  0  0
  -25.7144   26.2314   -6.9565 H   0  0  0  0  0  0  0  0  0  0  0  0
  -24.4515   27.3104   -7.5962 H   0  0  0  0  0  0  0  0  0  0  0  0
  -27.6467   28.4509   -7.2770 H   0  0  0  0  0  0  0  0  0  0  0  0
  -27.5763   32.1418  -10.0986 H   0  0  0  0  0  0  0  0  0  0  0  0
  -25.4337   33.7385   -9.2426 H   0  0  0  0  0  0  0  0  0  0  0  0
  -24.8855   32.5859  -10.6337 H   0  0  0  0  0  0  0  0  0  0  0  0
  -26.8210   33.5324  -11.9175 H   0  0  0  0  0  0  0  0  0  0  0  0
  -24.4017   34.1222  -12.1811 H   0  0  0  0  0  0  0  0  0  0  0  0
  -25.6535   35.4253  -12.7281 H   0  0  0  0  0  0  0  0  0  0  0  0
  -23.9109   35.5528  -10.3362 H   0  0  0  0  0  0  0  0  0  0  0  0
  -26.0479   40.6454  -13.7559 H   0  0  0  0  0  0  0  0  0  0  0  0
  -24.4673   42.7806  -10.3197 H   0  0  0  0  0  0  0  0  0  0  0  0
  -23.8368   40.6037   -9.2601 H   0  0  0  0  0  0  0  0  0  0  0  0
  -24.9706   45.1508  -11.3998 H   0  0  0  0  0  0  0  0  0  0  0  0
  -23.8733   44.8980  -12.7386 H   0  0  0  0  0  0  0  0  0  0  0  0
  -28.1998   34.3823  -10.2719 H   0  0  0  0  0  0  0  0  0  0  0  0
  -26.8464   35.5817   -9.7295 H   0  0  0  0  0  0  0  0  0  0  0  0
  -28.6749   35.1173  -13.1869 H   0  0  0  0  0  0  0  0  0  0  0  0
  -27.3935   36.2650  -13.5046 H   0  0  0  0  0  0  0  0  0  0  0  0
  -23.9001   30.4764   -6.5200 H   0  0  0  0  0  0  0  0  0  0  0  0
  1  2  1  0
  2  3  1  0
  3  4  2  0
  4  5  1  0
  5  6  2  0
  6  7  1  0
  7  8  1  0
  8  9  1  0
  9 10  1  0
 10 11  1  0
 11 12  1  0
 12 13  2  0
 13 14  1  0
 14 15  2  0
 15 16  1  0
 12 16  1  0
 15 17  1  0
 17 18  2  0
 18 19  1  0
 19 20  2  0
 14 20  1  0
 18 21  1  0
 21 22  1  0
 21 23  2  0
 21 24  2  0
  9 25  1  0
 25 26  1  0
 26 27  1  0
 26 28  2  0
  6 29  1  0
 29 30  2  0
  3 30  1  0
  1 31  1  0
  1 32  1  0
  1 33  1  0
  4 34  1  0
  7 35  1  0
  8 36  1  0
  8 37  1  0
  9 38  1  0
 10 39  1  0
 10 40  1  0
 11 41  1  0
 17 42  1  0
 19 43  1  0
 20 44  1  0
 22 45  1  0
 22 46  1  0
 25 47  1  0
 25 48  1  0
 27 49  1  0
 27 50  1  0
 30 51  1  0
M  END
>  <21666828|PCSK9_Human_KD_nM_PREFIX|1>  (1) 
>=

>  <21666828|PCSK9_Human_KD_nM_REMARKS|1>  (1) 
Range >= 2000 nM to < 20000 nM

>  <21666828|PCSK9_Human_KD_nM|1>  (1) 
2000

>  <CHROM.1>  (1) 
77.85144733,-171.98160326,-177.40280979,-162.48894107,-71.61552769,-110.67655733
166.38351237,-154.56270245,-88.10155907,174.87154064,31.62026877

>  <COMPOUND_ID>  (1) 
Example_178

>  <EmbedRMS>  (1) 
0.08003882786866065

>  <GVK_ID>  (1) 
124889533

>  <ISOMER>  (1) 
None

>  <Kd_Range>  (1) 
>= 2000

>  <Name>  (1) 


>  <PAGE>  (1) 
83

>  <REFERENCE>  (1) 
WO 2020/150474 A1

>  <REF_ID>  (1) 
2133368

>  <RI>  (1) 
2.47017e+07

>  <Rbt.Current_Directory>  (1) 
/dev/shm/dwight/Example-178

>  <Rbt.Executable>  (1) 
rbdock ($Id: //depot/dev/client3/rdock/2013.1/src/exe/rbdock.cxx#4 $)

>  <Rbt.Library>  (1) 
libRbt.so (2013.1, Build901 2013/11/27)

>  <Rbt.Parameter_File>  (1) 
dock.prm

>  <Rbt.Receptor>  (1) 
receptor.prm

>  <SCORE>  (1) 
-4.78081

>  <SCORE.INTER>  (1) 
-1.90606

>  <SCORE.INTER.CONST>  (1) 
1

>  <SCORE.INTER.POLAR>  (1) 
-3.45099

>  <SCORE.INTER.REPUL>  (1) 
0.276582

>  <SCORE.INTER.ROT>  (1) 
11

>  <SCORE.INTER.VDW>  (1) 
-7.95559

>  <SCORE.INTER.norm>  (1) 
-0.0635354

>  <SCORE.INTRA>  (1) 
-2.87475

>  <SCORE.INTRA.DIHEDRAL>  (1) 
-11.7868

>  <SCORE.INTRA.DIHEDRAL.0>  (1) 
28.7597

>  <SCORE.INTRA.POLAR>  (1) 
0.0199846

>  <SCORE.INTRA.POLAR.0>  (1) 
-0.0199846

>  <SCORE.INTRA.REPUL>  (1) 
0

>  <SCORE.INTRA.REPUL.0>  (1) 
0

>  <SCORE.INTRA.VDW>  (1) 
2.95073

>  <SCORE.INTRA.VDW.0>  (1) 
-2.24832

>  <SCORE.INTRA.norm>  (1) 
-0.0958249

>  <SCORE.RESTR>  (1) 
0

>  <SCORE.RESTR.CAVITY>  (1) 
0

>  <SCORE.RESTR.norm>  (1) 
0

>  <SCORE.SYSTEM>  (1) 
0

>  <SCORE.SYSTEM.CONST>  (1) 
0

>  <SCORE.SYSTEM.DIHEDRAL>  (1) 
0

>  <SCORE.SYSTEM.norm>  (1) 
0

>  <SCORE.heavy>  (1) 
30

>  <SCORE.norm>  (1) 
-0.15936

>  <TETHERED ATOMS>  (1) 
9,8,10,11,12,7,6

>  <_MOLCOUNT>  (1) 
1

$$$$
