
     RDKit          3D

 52 55  0  0  0  0  0  0  0  0999 V2000
  -26.0660   28.5719   -4.3923 C   0  0  0  0  0  0  0  0  0  0  0  0
  -25.2615   27.8188   -5.8403 S   0  0  0  0  0  0  0  0  0  0  0  0
  -25.6898   29.1747   -6.9334 C   0  0  0  0  0  0  0  0  0  0  0  0
  -24.8379   30.2702   -7.0807 C   0  0  0  0  0  0  0  0  0  0  0  0
  -25.1787   31.2845   -7.9172 N   0  0  0  0  0  0  0  0  0  0  0  0
  -26.3434   31.2530   -8.6220 C   0  0  0  0  0  0  0  0  0  0  0  0
  -26.6901   32.3258   -9.5018 N   0  0  0  0  0  0  0  0  0  0  0  0
  -25.6678   33.1121  -10.1929 C   0  0  0  0  0  0  0  0  0  0  0  0
  -26.2689   34.1379  -11.1842 C   0  0  0  0  0  0  0  0  0  0  0  0
  -27.1909   33.4673  -12.2259 C   0  0  0  0  0  0  0  0  0  0  0  0
  -25.1200   34.8349  -11.9437 C   0  0  0  0  0  0  0  0  0  0  0  0
  -24.5160   35.8925  -11.1439 N   0  0  0  0  0  0  0  0  0  0  0  0
  -25.1160   37.1874  -11.0392 C   0  0  0  0  0  0  0  0  0  0  0  0
  -26.3509   37.4821  -11.5161 N   0  0  0  0  0  0  0  0  0  0  0  0
  -26.6623   38.7795  -11.2678 C   0  0  0  0  0  0  0  0  0  0  0  0
  -25.6887   39.5046  -10.6029 C   0  0  0  0  0  0  0  0  0  0  0  0
  -24.3692   38.5119  -10.2956 S   0  0  0  0  0  0  0  0  0  0  0  0
  -25.8589   40.8461  -10.2741 C   0  0  0  0  0  0  0  0  0  0  0  0
  -27.0681   41.4840  -10.6336 C   0  0  0  0  0  0  0  0  0  0  0  0
  -28.0643   40.7375  -11.3151 C   0  0  0  0  0  0  0  0  0  0  0  0
  -27.8623   39.3840  -11.6332 C   0  0  0  0  0  0  0  0  0  0  0  0
  -27.2910   42.9144  -10.3015 C   0  0  0  0  0  0  0  0  0  0  0  0
  -27.9071   43.4348   -9.1763 C   0  0  0  0  0  0  0  0  0  0  0  0
  -27.8972   44.7760   -9.2756 N   0  0  0  0  0  0  0  0  0  0  0  0
  -28.3835   45.7080   -8.2677 C   0  0  0  0  0  0  0  0  0  0  0  0
  -27.2919   45.1466  -10.3918 N   0  0  0  0  0  0  0  0  0  0  0  0
  -26.9180   44.0278  -11.0426 C   0  0  0  0  0  0  0  0  0  0  0  0
  -27.1809   30.1887   -8.4925 N   0  0  0  0  0  0  0  0  0  0  0  0
  -26.8772   29.1540   -7.6666 C   0  0  0  0  0  0  0  0  0  0  0  0
  -26.2108   27.8142   -3.6222 H   0  0  0  0  0  0  0  0  0  0  0  0
  -25.4363   29.3712   -4.0017 H   0  0  0  0  0  0  0  0  0  0  0  0
  -27.0327   28.9812   -4.6856 H   0  0  0  0  0  0  0  0  0  0  0  0
  -23.8958   30.3344   -6.5364 H   0  0  0  0  0  0  0  0  0  0  0  0
  -27.6698   32.5308   -9.6369 H   0  0  0  0  0  0  0  0  0  0  0  0
  -25.1693   33.6797   -9.4071 H   0  0  0  0  0  0  0  0  0  0  0  0
  -25.1055   32.3880  -10.7825 H   0  0  0  0  0  0  0  0  0  0  0  0
  -26.8589   34.8500  -10.6071 H   0  0  0  0  0  0  0  0  0  0  0  0
  -27.9684   32.9018  -11.7123 H   0  0  0  0  0  0  0  0  0  0  0  0
  -27.6510   34.2331  -12.8503 H   0  0  0  0  0  0  0  0  0  0  0  0
  -26.6040   32.7937  -12.8503 H   0  0  0  0  0  0  0  0  0  0  0  0
  -24.3306   34.0973  -12.0882 H   0  0  0  0  0  0  0  0  0  0  0  0
  -25.5581   35.3400  -12.8045 H   0  0  0  0  0  0  0  0  0  0  0  0
  -23.6537   35.7226  -10.6462 H   0  0  0  0  0  0  0  0  0  0  0  0
  -25.0676   41.3818   -9.7498 H   0  0  0  0  0  0  0  0  0  0  0  0
  -29.0028   41.2131  -11.5998 H   0  0  0  0  0  0  0  0  0  0  0  0
  -28.6270   38.8103  -12.1569 H   0  0  0  0  0  0  0  0  0  0  0  0
  -28.3331   42.8762   -8.3428 H   0  0  0  0  0  0  0  0  0  0  0  0
  -29.4534   45.8653   -8.4043 H   0  0  0  0  0  0  0  0  0  0  0  0
  -28.2006   45.2973   -7.2748 H   0  0  0  0  0  0  0  0  0  0  0  0
  -27.8605   46.6589   -8.3696 H   0  0  0  0  0  0  0  0  0  0  0  0
  -26.4027   44.0241  -12.0031 H   0  0  0  0  0  0  0  0  0  0  0  0
  -27.5753   28.3202   -7.5934 H   0  0  0  0  0  0  0  0  0  0  0  0
  1  2  1  0
  2  3  1  0
  3  4  2  0
  4  5  1  0
  5  6  2  0
  6  7  1  0
  7  8  1  0
  8  9  1  0
  9 10  1  0
  9 11  1  0
 11 12  1  0
 12 13  1  0
 13 14  2  0
 14 15  1  0
 15 16  2  0
 16 17  1  0
 13 17  1  0
 16 18  1  0
 18 19  2  0
 19 20  1  0
 20 21  2  0
 15 21  1  0
 19 22  1  0
 22 23  2  0
 23 24  1  0
 24 25  1  0
 24 26  1  0
 26 27  2  0
 22 27  1  0
  6 28  1  0
 28 29  2  0
  3 29  1  0
  1 30  1  0
  1 31  1  0
  1 32  1  0
  4 33  1  0
  7 34  1  0
  8 35  1  0
  8 36  1  0
  9 37  1  0
 10 38  1  0
 10 39  1  0
 10 40  1  0
 11 41  1  0
 11 42  1  0
 12 43  1  0
 18 44  1  0
 20 45  1  0
 21 46  1  0
 23 47  1  0
 25 48  1  0
 25 49  1  0
 25 50  1  0
 27 51  1  0
 29 52  1  0
M  END
>  <21666828|PCSK9_Human_KD_nM_PREFIX|1>  (1) 
>=

>  <21666828|PCSK9_Human_KD_nM_REMARKS|1>  (1) 
Range >= 200 nM to < 2000 nM

>  <21666828|PCSK9_Human_KD_nM|1>  (1) 
200

>  <CHROM.1>  (1) 
89.66123462,30.44982345,175.06285857,-56.01538420,-80.14554736,-80.48568493
8.77760542,-92.90156873

>  <COMPOUND_ID>  (1) 
Example_98

>  <EmbedRMS>  (1) 
0.08750103560978498

>  <GVK_ID>  (1) 
124889508

>  <ISOMER>  (1) 
None

>  <Kd_Range>  (1) 
>= 200

>  <Name>  (1) 


>  <PAGE>  (1) 
72

>  <REFERENCE>  (1) 
WO 2020/150474 A1

>  <REF_ID>  (1) 
2133368

>  <RI>  (1) 
1.98848e+07

>  <Rbt.Current_Directory>  (1) 
/dev/shm/dwight/Example-98

>  <Rbt.Executable>  (1) 
rbdock ($Id: //depot/dev/client3/rdock/2013.1/src/exe/rbdock.cxx#4 $)

>  <Rbt.Library>  (1) 
libRbt.so (2013.1, Build901 2013/11/27)

>  <Rbt.Parameter_File>  (1) 
dock.prm

>  <Rbt.Receptor>  (1) 
receptor.prm

>  <SCORE>  (1) 
30.3206

>  <SCORE.INTER>  (1) 
26.61

>  <SCORE.INTER.CONST>  (1) 
1

>  <SCORE.INTER.POLAR>  (1) 
-1.88333

>  <SCORE.INTER.REPUL>  (1) 
0.16809

>  <SCORE.INTER.ROT>  (1) 
8

>  <SCORE.INTER.VDW>  (1) 
18.7729

>  <SCORE.INTER.norm>  (1) 
0.917586

>  <SCORE.INTRA>  (1) 
3.71062

>  <SCORE.INTRA.DIHEDRAL>  (1) 
17.099

>  <SCORE.INTRA.DIHEDRAL.0>  (1) 
9.51759

>  <SCORE.INTRA.POLAR>  (1) 
0

>  <SCORE.INTRA.POLAR.0>  (1) 
0

>  <SCORE.INTRA.REPUL>  (1) 
0

>  <SCORE.INTRA.REPUL.0>  (1) 
0

>  <SCORE.INTRA.VDW>  (1) 
-4.83888

>  <SCORE.INTRA.VDW.0>  (1) 
3.34106

>  <SCORE.INTRA.norm>  (1) 
0.127952

>  <SCORE.RESTR>  (1) 
0

>  <SCORE.RESTR.CAVITY>  (1) 
0

>  <SCORE.RESTR.norm>  (1) 
0

>  <SCORE.SYSTEM>  (1) 
0

>  <SCORE.SYSTEM.CONST>  (1) 
0

>  <SCORE.SYSTEM.DIHEDRAL>  (1) 
0

>  <SCORE.SYSTEM.norm>  (1) 
0

>  <SCORE.heavy>  (1) 
29

>  <SCORE.norm>  (1) 
1.04554

>  <TETHERED ATOMS>  (1) 
9,8,11,12,13,7,6

>  <_MOLCOUNT>  (1) 
1

$$$$
