
     RDKit          3D

 47 49  0  0  0  0  0  0  0  0999 V2000
  -26.1777   28.4408   -4.4797 C   0  0  0  0  0  0  0  0  0  0  0  0
  -25.2234   27.7931   -5.8870 S   0  0  0  0  0  0  0  0  0  0  0  0
  -25.6681   29.1526   -6.9690 C   0  0  0  0  0  0  0  0  0  0  0  0
  -24.8320   30.2618   -7.1037 C   0  0  0  0  0  0  0  0  0  0  0  0
  -25.1849   31.2788   -7.9319 N   0  0  0  0  0  0  0  0  0  0  0  0
  -26.3447   31.2363   -8.6415 C   0  0  0  0  0  0  0  0  0  0  0  0
  -26.6904   32.3249   -9.5022 N   0  0  0  0  0  0  0  0  0  0  0  0
  -25.6680   33.1116  -10.1927 C   0  0  0  0  0  0  0  0  0  0  0  0
  -26.2690   34.1363  -11.1849 C   0  0  0  0  0  0  0  0  0  0  0  0
  -27.1902   33.4647  -12.2266 C   0  0  0  0  0  0  0  0  0  0  0  0
  -25.1198   34.8329  -11.9444 C   0  0  0  0  0  0  0  0  0  0  0  0
  -24.4386   35.8090  -11.1028 N   0  0  0  0  0  0  0  0  0  0  0  0
  -24.6571   37.2193  -11.2521 C   0  0  0  0  0  0  0  0  0  0  0  0
  -24.0825   38.1221  -10.3515 C   0  0  0  0  0  0  0  0  0  0  0  0
  -24.3043   39.4533  -10.5049 N   0  0  0  0  0  0  0  0  0  0  0  0
  -25.0752   39.9413  -11.5163 C   0  0  0  0  0  0  0  0  0  0  0  0
  -25.6512   39.0321  -12.4189 C   0  0  0  0  0  0  0  0  0  0  0  0
  -25.4287   37.7012  -12.2643 N   0  0  0  0  0  0  0  0  0  0  0  0
  -25.2934   41.4023  -11.6490 C   0  0  0  0  0  0  0  0  0  0  0  0
  -26.5750   41.9610  -11.4949 C   0  0  0  0  0  0  0  0  0  0  0  0
  -26.7452   43.3408  -11.6265 C   0  0  0  0  0  0  0  0  0  0  0  0
  -25.6472   44.1535  -11.9089 C   0  0  0  0  0  0  0  0  0  0  0  0
  -24.3881   43.5705  -12.0563 C   0  0  0  0  0  0  0  0  0  0  0  0
  -24.2412   42.2253  -11.9247 N   0  0  0  0  0  0  0  0  0  0  0  0
  -27.1695   30.1594   -8.5222 N   0  0  0  0  0  0  0  0  0  0  0  0
  -26.8533   29.1216   -7.7051 C   0  0  0  0  0  0  0  0  0  0  0  0
  -25.8288   27.9741   -3.5585 H   0  0  0  0  0  0  0  0  0  0  0  0
  -26.0413   29.5203   -4.4142 H   0  0  0  0  0  0  0  0  0  0  0  0
  -27.2346   28.2161   -4.6231 H   0  0  0  0  0  0  0  0  0  0  0  0
  -23.8926   30.3346   -6.5557 H   0  0  0  0  0  0  0  0  0  0  0  0
  -27.6695   32.5409   -9.6240 H   0  0  0  0  0  0  0  0  0  0  0  0
  -25.1707   33.6801   -9.4067 H   0  0  0  0  0  0  0  0  0  0  0  0
  -25.1046   32.3877  -10.7815 H   0  0  0  0  0  0  0  0  0  0  0  0
  -26.8596   34.8485  -10.6086 H   0  0  0  0  0  0  0  0  0  0  0  0
  -27.9671   32.8983  -11.7130 H   0  0  0  0  0  0  0  0  0  0  0  0
  -27.6512   34.2300  -12.8510 H   0  0  0  0  0  0  0  0  0  0  0  0
  -26.6026   32.7917  -12.8510 H   0  0  0  0  0  0  0  0  0  0  0  0
  -24.3705   34.0737  -12.1685 H   0  0  0  0  0  0  0  0  0  0  0  0
  -25.5675   35.4120  -12.7521 H   0  0  0  0  0  0  0  0  0  0  0  0
  -23.7928   35.4974  -10.3916 H   0  0  0  0  0  0  0  0  0  0  0  0
  -23.4573   37.7858   -9.5243 H   0  0  0  0  0  0  0  0  0  0  0  0
  -26.2772   39.3628  -13.2477 H   0  0  0  0  0  0  0  0  0  0  0  0
  -27.4335   41.3267  -11.2743 H   0  0  0  0  0  0  0  0  0  0  0  0
  -27.7344   43.7832  -11.5088 H   0  0  0  0  0  0  0  0  0  0  0  0
  -25.7715   45.2313  -12.0132 H   0  0  0  0  0  0  0  0  0  0  0  0
  -23.5076   44.1740  -12.2771 H   0  0  0  0  0  0  0  0  0  0  0  0
  -27.5398   28.2775   -7.6410 H   0  0  0  0  0  0  0  0  0  0  0  0
  1  2  1  0
  2  3  1  0
  3  4  2  0
  4  5  1  0
  5  6  2  0
  6  7  1  0
  7  8  1  0
  8  9  1  0
  9 10  1  0
  9 11  1  0
 11 12  1  0
 12 13  1  0
 13 14  2  0
 14 15  1  0
 15 16  2  0
 16 17  1  0
 17 18  2  0
 13 18  1  0
 16 19  1  0
 19 20  2  0
 20 21  1  0
 21 22  2  0
 22 23  1  0
 23 24  2  0
 19 24  1  0
  6 25  1  0
 25 26  2  0
  3 26  1  0
  1 27  1  0
  1 28  1  0
  1 29  1  0
  4 30  1  0
  7 31  1  0
  8 32  1  0
  8 33  1  0
  9 34  1  0
 10 35  1  0
 10 36  1  0
 10 37  1  0
 11 38  1  0
 11 39  1  0
 12 40  1  0
 14 41  1  0
 17 42  1  0
 20 43  1  0
 21 44  1  0
 22 45  1  0
 23 46  1  0
 26 47  1  0
M  END
>  <21666828|PCSK9_Human_KD_nM_PREFIX|1>  (1) 
>=

>  <21666828|PCSK9_Human_KD_nM_REMARKS|1>  (1) 
Range >= 2000 nM to < 20000 nM

>  <21666828|PCSK9_Human_KD_nM|1>  (1) 
2000

>  <CHROM.1>  (1) 
94.80265250,32.04944911,173.84685131,-55.98241291,-75.03872584,-103.78492638
174.18936345,-115.38064503

>  <COMPOUND_ID>  (1) 
Example_213

>  <EmbedRMS>  (1) 
0.08793137942793224

>  <GVK_ID>  (1) 
124889556

>  <ISOMER>  (1) 
None

>  <Kd_Range>  (1) 
>= 2000

>  <Name>  (1) 


>  <PAGE>  (1) 
108

>  <REFERENCE>  (1) 
WO 2020/150474 A1

>  <REF_ID>  (1) 
2133368

>  <RI>  (1) 
2.33705e+07

>  <Rbt.Current_Directory>  (1) 
/dev/shm/dwight/Example-213

>  <Rbt.Executable>  (1) 
rbdock ($Id: //depot/dev/client3/rdock/2013.1/src/exe/rbdock.cxx#4 $)

>  <Rbt.Library>  (1) 
libRbt.so (2013.1, Build901 2013/11/27)

>  <Rbt.Parameter_File>  (1) 
dock.prm

>  <Rbt.Receptor>  (1) 
receptor.prm

>  <SCORE>  (1) 
26.1124

>  <SCORE.INTER>  (1) 
25.5465

>  <SCORE.INTER.CONST>  (1) 
1

>  <SCORE.INTER.POLAR>  (1) 
-2.35305

>  <SCORE.INTER.REPUL>  (1) 
0.113094

>  <SCORE.INTER.ROT>  (1) 
8

>  <SCORE.INTER.VDW>  (1) 
19.5814

>  <SCORE.INTER.norm>  (1) 
0.982559

>  <SCORE.INTRA>  (1) 
0.565841

>  <SCORE.INTRA.DIHEDRAL>  (1) 
6.57716

>  <SCORE.INTRA.DIHEDRAL.0>  (1) 
8.92288

>  <SCORE.INTRA.POLAR>  (1) 
0

>  <SCORE.INTRA.POLAR.0>  (1) 
0

>  <SCORE.INTRA.REPUL>  (1) 
0

>  <SCORE.INTRA.REPUL.0>  (1) 
0

>  <SCORE.INTRA.VDW>  (1) 
-2.72274

>  <SCORE.INTRA.VDW.0>  (1) 
2.4253

>  <SCORE.INTRA.norm>  (1) 
0.0217631

>  <SCORE.RESTR>  (1) 
0

>  <SCORE.RESTR.CAVITY>  (1) 
0

>  <SCORE.RESTR.norm>  (1) 
0

>  <SCORE.SYSTEM>  (1) 
0

>  <SCORE.SYSTEM.CONST>  (1) 
0

>  <SCORE.SYSTEM.DIHEDRAL>  (1) 
0

>  <SCORE.SYSTEM.norm>  (1) 
0

>  <SCORE.heavy>  (1) 
26

>  <SCORE.norm>  (1) 
1.00432

>  <TETHERED ATOMS>  (1) 
9,8,11,12,13,7,6

>  <_MOLCOUNT>  (1) 
1

$$$$
