
     RDKit          3D

 46 49  0  0  0  0  0  0  0  0999 V2000
  -26.1511   41.9780  -10.8581 C   0  0  0  0  0  0  0  0  0  0  0  0
  -27.1856   40.9802   -9.7423 S   0  0  0  0  0  0  0  0  0  0  0  0
  -26.3703   39.4406  -10.1684 C   0  0  0  0  0  0  0  0  0  0  0  0
  -25.1317   39.1111   -9.6159 C   0  0  0  0  0  0  0  0  0  0  0  0
  -24.5332   37.9378   -9.9478 N   0  0  0  0  0  0  0  0  0  0  0  0
  -25.1230   37.0683  -10.8115 C   0  0  0  0  0  0  0  0  0  0  0  0
  -24.4625   35.8400  -11.1435 N   0  0  0  0  0  0  0  0  0  0  0  0
  -25.1308   34.7665  -11.8910 C   0  0  0  0  0  0  0  0  0  0  0  0
  -24.1975   33.5705  -12.0932 C   0  0  0  0  0  0  0  0  0  0  0  0
  -24.4611   32.6077  -10.9340 C   0  0  0  0  0  0  0  0  0  0  0  0
  -25.6627   33.1644  -10.1637 C   0  0  0  0  0  0  0  0  0  0  0  0
  -26.2940   34.2041  -11.0842 C   0  0  0  0  0  0  0  0  0  0  0  0
  -26.6124   32.1075   -9.7977 N   0  0  0  0  0  0  0  0  0  0  0  0
  -26.3285   31.1556   -8.7615 C   0  0  0  0  0  0  0  0  0  0  0  0
  -25.1150   31.2123   -8.0676 C   0  0  0  0  0  0  0  0  0  0  0  0
  -24.8522   30.2823   -7.0604 C   0  0  0  0  0  0  0  0  0  0  0  0
  -25.8007   29.2931   -6.7431 C   0  0  0  0  0  0  0  0  0  0  0  0
  -27.0054   29.2758   -7.4670 C   0  0  0  0  0  0  0  0  0  0  0  0
  -27.2364   30.1929   -8.4430 N   0  0  0  0  0  0  0  0  0  0  0  0
  -25.5615   28.3165   -5.7078 N   0  0  0  0  0  0  0  0  0  0  0  0
  -24.9584   27.1156   -5.8160 C   0  0  0  0  0  0  0  0  0  0  0  0
  -24.9169   26.4788   -4.6297 N   0  0  0  0  0  0  0  0  0  0  0  0
  -25.5249   27.3571   -3.8051 C   0  0  0  0  0  0  0  0  0  0  0  0
  -25.9197   28.4731   -4.4452 N   0  0  0  0  0  0  0  0  0  0  0  0
  -26.3318   37.3759  -11.3578 N   0  0  0  0  0  0  0  0  0  0  0  0
  -26.9639   38.5384  -11.0520 C   0  0  0  0  0  0  0  0  0  0  0  0
  -25.6517   41.3238  -11.5728 H   0  0  0  0  0  0  0  0  0  0  0  0
  -26.7777   42.6907  -11.3942 H   0  0  0  0  0  0  0  0  0  0  0  0
  -25.4040   42.5172  -10.2757 H   0  0  0  0  0  0  0  0  0  0  0  0
  -24.6262   39.7776   -8.9172 H   0  0  0  0  0  0  0  0  0  0  0  0
  -23.5045   35.7284  -10.8439 H   0  0  0  0  0  0  0  0  0  0  0  0
  -25.4337   35.2397  -12.8251 H   0  0  0  0  0  0  0  0  0  0  0  0
  -24.5060   33.0681  -13.0100 H   0  0  0  0  0  0  0  0  0  0  0  0
  -23.1752   33.9338  -11.9883 H   0  0  0  0  0  0  0  0  0  0  0  0
  -24.7646   31.6542  -11.3662 H   0  0  0  0  0  0  0  0  0  0  0  0
  -23.5981   32.6549  -10.2698 H   0  0  0  0  0  0  0  0  0  0  0  0
  -25.3857   33.5835   -9.1964 H   0  0  0  0  0  0  0  0  0  0  0  0
  -26.9546   33.6800  -11.7748 H   0  0  0  0  0  0  0  0  0  0  0  0
  -26.6848   35.0078  -10.4602 H   0  0  0  0  0  0  0  0  0  0  0  0
  -27.4974   32.0322  -10.2785 H   0  0  0  0  0  0  0  0  0  0  0  0
  -24.3777   31.9775   -8.3105 H   0  0  0  0  0  0  0  0  0  0  0  0
  -23.9059   30.3285   -6.5214 H   0  0  0  0  0  0  0  0  0  0  0  0
  -27.7783   28.5338   -7.2668 H   0  0  0  0  0  0  0  0  0  0  0  0
  -24.5555   26.7110   -6.7445 H   0  0  0  0  0  0  0  0  0  0  0  0
  -25.6800   27.1842   -2.7401 H   0  0  0  0  0  0  0  0  0  0  0  0
  -27.9321   38.7439  -11.5085 H   0  0  0  0  0  0  0  0  0  0  0  0
  1  2  1  0
  2  3  1  0
  3  4  2  0
  4  5  1  0
  5  6  2  0
  6  7  1  0
  8  7  1  0
  8  9  1  0
  9 10  1  0
 11 10  1  0
 11 12  1  0
  8 12  1  0
 11 13  1  0
 13 14  1  0
 14 15  2  0
 15 16  1  0
 16 17  2  0
 17 18  1  0
 18 19  2  0
 14 19  1  0
 17 20  1  0
 20 21  1  0
 21 22  2  0
 22 23  1  0
 23 24  2  0
 20 24  1  0
  6 25  1  0
 25 26  2  0
  3 26  1  0
  1 27  1  0
  1 28  1  0
  1 29  1  0
  4 30  1  0
  7 31  1  0
  8 32  1  0
  9 33  1  0
  9 34  1  0
 10 35  1  0
 10 36  1  0
 11 37  1  0
 12 38  1  0
 12 39  1  0
 13 40  1  0
 15 41  1  0
 16 42  1  0
 18 43  1  0
 21 44  1  0
 23 45  1  0
 26 46  1  0
M  END
>  <21666828|PCSK9_Human_KD_nM_PREFIX|1>  (1) 
>=

>  <21666828|PCSK9_Human_KD_nM_REMARKS|1>  (1) 
Range >= 200 nM to < 2000 nM

>  <21666828|PCSK9_Human_KD_nM|1>  (1) 
200

>  <CHROM.1>  (1) 
78.80164674,169.92783371,-179.49814429,73.03091485,-0.23663646,-88.36248145

>  <COMPOUND_ID>  (1) 
Example_317

>  <EmbedRMS>  (1) 
0.007450572660653868

>  <GVK_ID>  (1) 
124889604

>  <ISOMER>  (1) 
None

>  <Kd_Range>  (1) 
>= 200

>  <Name>  (1) 


>  <PAGE>  (1) 
156

>  <REFERENCE>  (1) 
WO 2020/150474 A1

>  <REF_ID>  (1) 
2133368

>  <RI>  (1) 
4.37726e+07

>  <Rbt.Current_Directory>  (1) 
/dev/shm/dwight/Example-317

>  <Rbt.Executable>  (1) 
rbdock ($Id: //depot/dev/client3/rdock/2013.1/src/exe/rbdock.cxx#4 $)

>  <Rbt.Library>  (1) 
libRbt.so (2013.1, Build901 2013/11/27)

>  <Rbt.Parameter_File>  (1) 
dock.prm

>  <Rbt.Receptor>  (1) 
receptor.prm

>  <SCORE>  (1) 
-11.4289

>  <SCORE.INTER>  (1) 
-20.6192

>  <SCORE.INTER.CONST>  (1) 
1

>  <SCORE.INTER.POLAR>  (1) 
-1.41452

>  <SCORE.INTER.REPUL>  (1) 
0

>  <SCORE.INTER.ROT>  (1) 
6

>  <SCORE.INTER.VDW>  (1) 
-27.2098

>  <SCORE.INTER.norm>  (1) 
-0.793046

>  <SCORE.INTRA>  (1) 
9.19034

>  <SCORE.INTRA.DIHEDRAL>  (1) 
13.1271

>  <SCORE.INTRA.DIHEDRAL.0>  (1) 
6.88999

>  <SCORE.INTRA.POLAR>  (1) 
0

>  <SCORE.INTRA.POLAR.0>  (1) 
0

>  <SCORE.INTRA.REPUL>  (1) 
0

>  <SCORE.INTRA.REPUL.0>  (1) 
0

>  <SCORE.INTRA.VDW>  (1) 
2.62679

>  <SCORE.INTRA.VDW.0>  (1) 
-1.48076

>  <SCORE.INTRA.norm>  (1) 
0.353475

>  <SCORE.RESTR>  (1) 
0

>  <SCORE.RESTR.CAVITY>  (1) 
0

>  <SCORE.RESTR.norm>  (1) 
0

>  <SCORE.SYSTEM>  (1) 
0

>  <SCORE.SYSTEM.CONST>  (1) 
0

>  <SCORE.SYSTEM.DIHEDRAL>  (1) 
0

>  <SCORE.SYSTEM.norm>  (1) 
0

>  <SCORE.heavy>  (1) 
26

>  <SCORE.norm>  (1) 
-0.439572

>  <TETHERED ATOMS>  (1) 
12,11,10,9,8,7,6,13,14

>  <_MOLCOUNT>  (1) 
1

$$$$
