
     RDKit          3D

 42 44  0  0  0  0  0  0  0  0999 V2000
  -26.4537   41.9953  -10.8417 C   0  0  0  0  0  0  0  0  0  0  0  0
  -27.2672   41.0013   -9.5529 S   0  0  0  0  0  0  0  0  0  0  0  0
  -26.4581   39.4791  -10.0476 C   0  0  0  0  0  0  0  0  0  0  0  0
  -25.2108   39.1309   -9.5275 C   0  0  0  0  0  0  0  0  0  0  0  0
  -24.6135   37.9752   -9.9178 N   0  0  0  0  0  0  0  0  0  0  0  0
  -25.2077   37.1450  -10.8167 C   0  0  0  0  0  0  0  0  0  0  0  0
  -24.5516   35.9298  -11.1951 N   0  0  0  0  0  0  0  0  0  0  0  0
  -25.2373   34.9225  -11.9931 C   0  0  0  0  0  0  0  0  0  0  0  0
  -26.2624   34.1498  -11.1483 C   0  0  0  0  0  0  0  0  0  0  0  0
  -25.6192   33.1317  -10.1846 C   0  0  0  0  0  0  0  0  0  0  0  0
  -25.2079   31.8509  -10.9272 C   0  0  0  0  0  0  0  0  0  0  0  0
  -26.5580   32.7899   -9.1071 N   0  0  0  0  0  0  0  0  0  0  0  0
  -26.4783   31.5581   -8.3802 C   0  0  0  0  0  0  0  0  0  0  0  0
  -25.6169   30.5538   -8.6969 N   0  0  0  0  0  0  0  0  0  0  0  0
  -25.8987   29.6446   -7.7487 C   0  0  0  0  0  0  0  0  0  0  0  0
  -26.8771   30.1122   -6.9234 C   0  0  0  0  0  0  0  0  0  0  0  0
  -27.2304   31.3037   -7.3223 O   0  0  0  0  0  0  0  0  0  0  0  0
  -27.3613   29.3699   -5.8500 C   0  0  0  0  0  0  0  0  0  0  0  0
  -26.8007   28.0960   -5.6361 C   0  0  0  0  0  0  0  0  0  0  0  0
  -25.7847   27.6081   -6.4912 C   0  0  0  0  0  0  0  0  0  0  0  0
  -25.3212   28.3903   -7.5670 C   0  0  0  0  0  0  0  0  0  0  0  0
  -26.4246   37.4734  -11.3337 N   0  0  0  0  0  0  0  0  0  0  0  0
  -27.0558   38.6193  -10.9698 C   0  0  0  0  0  0  0  0  0  0  0  0
  -25.6212   41.4322  -11.2635 H   0  0  0  0  0  0  0  0  0  0  0  0
  -27.1714   42.2273  -11.6286 H   0  0  0  0  0  0  0  0  0  0  0  0
  -26.0813   42.9219  -10.4048 H   0  0  0  0  0  0  0  0  0  0  0  0
  -24.6973   39.7689   -8.8082 H   0  0  0  0  0  0  0  0  0  0  0  0
  -23.5981   35.7820  -10.8968 H   0  0  0  0  0  0  0  0  0  0  0  0
  -25.7916   35.4788  -12.7490 H   0  0  0  0  0  0  0  0  0  0  0  0
  -24.4645   34.2153  -12.2944 H   0  0  0  0  0  0  0  0  0  0  0  0
  -26.7502   34.8934  -10.5181 H   0  0  0  0  0  0  0  0  0  0  0  0
  -26.8504   33.5644  -11.8552 H   0  0  0  0  0  0  0  0  0  0  0  0
  -24.7452   33.5830   -9.7151 H   0  0  0  0  0  0  0  0  0  0  0  0
  -24.4238   31.3418  -10.3667 H   0  0  0  0  0  0  0  0  0  0  0  0
  -26.0717   31.1931  -11.0230 H   0  0  0  0  0  0  0  0  0  0  0  0
  -24.8363   32.1094  -11.9188 H   0  0  0  0  0  0  0  0  0  0  0  0
  -27.2942   33.4333   -8.8537 H   0  0  0  0  0  0  0  0  0  0  0  0
  -28.1447   29.7685   -5.2055 H   0  0  0  0  0  0  0  0  0  0  0  0
  -27.1547   27.4854   -4.8055 H   0  0  0  0  0  0  0  0  0  0  0  0
  -25.3552   26.6210   -6.3198 H   0  0  0  0  0  0  0  0  0  0  0  0
  -24.5394   28.0357   -8.2386 H   0  0  0  0  0  0  0  0  0  0  0  0
  -28.0266   38.8454  -11.4109 H   0  0  0  0  0  0  0  0  0  0  0  0
  1  2  1  0
  2  3  1  0
  3  4  2  0
  4  5  1  0
  5  6  2  0
  6  7  1  0
  7  8  1  0
  8  9  1  0
  9 10  1  0
 10 11  1  0
 10 12  1  0
 12 13  1  0
 13 14  2  0
 14 15  1  0
 15 16  2  0
 16 17  1  0
 13 17  1  0
 16 18  1  0
 18 19  2  0
 19 20  1  0
 20 21  2  0
 15 21  1  0
  6 22  1  0
 22 23  2  0
  3 23  1  0
  1 24  1  0
  1 25  1  0
  1 26  1  0
  4 27  1  0
  7 28  1  0
  8 29  1  0
  8 30  1  0
  9 31  1  0
  9 32  1  0
 10 33  1  0
 11 34  1  0
 11 35  1  0
 11 36  1  0
 12 37  1  0
 18 38  1  0
 19 39  1  0
 20 40  1  0
 21 41  1  0
 23 42  1  0
M  END
>  <21666828|PCSK9_Human_KD_nM_PREFIX|1>  (1) 
>=

>  <21666828|PCSK9_Human_KD_nM_REMARKS|1>  (1) 
Range >= 2000 nM to < 20000 nM

>  <21666828|PCSK9_Human_KD_nM|1>  (1) 
2000

>  <CHROM.1>  (1) 
87.76606621,170.66265060,-74.74427256,-74.73584210,-78.68016559,155.84203753
-6.18794195

>  <COMPOUND_ID>  (1) 
Example_167

>  <EmbedRMS>  (1) 
0.1183788281557936

>  <GVK_ID>  (1) 
124889522

>  <ISOMER>  (1) 
None

>  <Kd_Range>  (1) 
>= 2000

>  <Name>  (1) 


>  <PAGE>  (1) 
78

>  <REFERENCE>  (1) 
WO 2020/150474 A1

>  <REF_ID>  (1) 
2133368

>  <RI>  (1) 
3.43518e+07

>  <Rbt.Current_Directory>  (1) 
/dev/shm/dwight/Example-167

>  <Rbt.Executable>  (1) 
rbdock ($Id: //depot/dev/client3/rdock/2013.1/src/exe/rbdock.cxx#4 $)

>  <Rbt.Library>  (1) 
libRbt.so (2013.1, Build901 2013/11/27)

>  <Rbt.Parameter_File>  (1) 
dock.prm

>  <Rbt.Receptor>  (1) 
receptor.prm

>  <SCORE>  (1) 
-10.107

>  <SCORE.INTER>  (1) 
-4.58757

>  <SCORE.INTER.CONST>  (1) 
1

>  <SCORE.INTER.POLAR>  (1) 
0

>  <SCORE.INTER.REPUL>  (1) 
0

>  <SCORE.INTER.ROT>  (1) 
7

>  <SCORE.INTER.VDW>  (1) 
-16.9876

>  <SCORE.INTER.norm>  (1) 
-0.199459

>  <SCORE.INTRA>  (1) 
-5.51947

>  <SCORE.INTRA.DIHEDRAL>  (1) 
-0.231315

>  <SCORE.INTRA.DIHEDRAL.0>  (1) 
10.7995

>  <SCORE.INTRA.POLAR>  (1) 
0

>  <SCORE.INTRA.POLAR.0>  (1) 
0

>  <SCORE.INTRA.REPUL>  (1) 
0

>  <SCORE.INTRA.REPUL.0>  (1) 
0

>  <SCORE.INTRA.VDW>  (1) 
-5.40381

>  <SCORE.INTRA.VDW.0>  (1) 
9.45023

>  <SCORE.INTRA.norm>  (1) 
-0.239977

>  <SCORE.RESTR>  (1) 
0

>  <SCORE.RESTR.CAVITY>  (1) 
0

>  <SCORE.RESTR.norm>  (1) 
0

>  <SCORE.SYSTEM>  (1) 
0

>  <SCORE.SYSTEM.CONST>  (1) 
0

>  <SCORE.SYSTEM.DIHEDRAL>  (1) 
0

>  <SCORE.SYSTEM.norm>  (1) 
0

>  <SCORE.heavy>  (1) 
23

>  <SCORE.norm>  (1) 
-0.439436

>  <TETHERED ATOMS>  (1) 
9,10,11,8,7,6,12,13

>  <_MOLCOUNT>  (1) 
1

$$$$
