
     RDKit          3D

 45 47  0  0  0  0  0  0  0  0999 V2000
  -26.3335   28.7883   -4.2869 C   0  0  0  0  0  0  0  0  0  0  0  0
  -25.3574   27.9953   -5.6019 S   0  0  0  0  0  0  0  0  0  0  0  0
  -25.7464   29.2564   -6.8165 C   0  0  0  0  0  0  0  0  0  0  0  0
  -26.9434   29.2138   -7.5328 C   0  0  0  0  0  0  0  0  0  0  0  0
  -27.2213   30.1812   -8.4449 N   0  0  0  0  0  0  0  0  0  0  0  0
  -26.3508   31.2010   -8.6740 C   0  0  0  0  0  0  0  0  0  0  0  0
  -26.6723   32.2035   -9.6420 N   0  0  0  0  0  0  0  0  0  0  0  0
  -25.6679   33.1487  -10.1286 C   0  0  0  0  0  0  0  0  0  0  0  0
  -26.2741   34.1107  -11.1627 C   0  0  0  0  0  0  0  0  0  0  0  0
  -27.3156   35.0461  -10.5302 C   0  0  0  0  0  0  0  0  0  0  0  0
  -25.1663   34.8466  -11.9396 C   0  0  0  0  0  0  0  0  0  0  0  0
  -24.4612   35.8124  -11.1022 N   0  0  0  0  0  0  0  0  0  0  0  0
  -24.4936   37.2220  -11.3716 C   0  0  0  0  0  0  0  0  0  0  0  0
  -24.2856   37.6960  -12.6708 C   0  0  0  0  0  0  0  0  0  0  0  0
  -24.3266   39.0322  -12.9107 N   0  0  0  0  0  0  0  0  0  0  0  0
  -24.5712   39.9327  -11.9195 C   0  0  0  0  0  0  0  0  0  0  0  0
  -24.7897   39.4537  -10.6163 C   0  0  0  0  0  0  0  0  0  0  0  0
  -24.7480   38.1171  -10.3788 N   0  0  0  0  0  0  0  0  0  0  0  0
  -24.6007   41.3364  -12.2345 N   0  0  0  0  0  0  0  0  0  0  0  0
  -24.4024   42.3766  -11.3969 C   0  0  0  0  0  0  0  0  0  0  0  0
  -24.5193   43.5456  -12.1165 C   0  0  0  0  0  0  0  0  0  0  0  0
  -24.7933   43.1393  -13.4064 C   0  0  0  0  0  0  0  0  0  0  0  0
  -24.8378   41.7945  -13.4544 N   0  0  0  0  0  0  0  0  0  0  0  0
  -25.1804   31.2578   -7.9802 N   0  0  0  0  0  0  0  0  0  0  0  0
  -24.8648   30.3105   -7.0595 C   0  0  0  0  0  0  0  0  0  0  0  0
  -26.4171   28.1103   -3.4374 H   0  0  0  0  0  0  0  0  0  0  0  0
  -25.8392   29.7070   -3.9712 H   0  0  0  0  0  0  0  0  0  0  0  0
  -27.3289   29.0224   -4.6642 H   0  0  0  0  0  0  0  0  0  0  0  0
  -27.6695   28.4157   -7.3781 H   0  0  0  0  0  0  0  0  0  0  0  0
  -27.6209   32.2446   -9.9864 H   0  0  0  0  0  0  0  0  0  0  0  0
  -25.3809   33.7430   -9.2611 H   0  0  0  0  0  0  0  0  0  0  0  0
  -24.9229   32.5437  -10.6453 H   0  0  0  0  0  0  0  0  0  0  0  0
  -26.8287   33.5257  -11.8964 H   0  0  0  0  0  0  0  0  0  0  0  0
  -27.2471   34.9846   -9.4441 H   0  0  0  0  0  0  0  0  0  0  0  0
  -27.1247   36.0708  -10.8489 H   0  0  0  0  0  0  0  0  0  0  0  0
  -28.3140   34.7466  -10.8489 H   0  0  0  0  0  0  0  0  0  0  0  0
  -24.4170   34.1040  -12.2140 H   0  0  0  0  0  0  0  0  0  0  0  0
  -25.6542   35.4399  -12.7128 H   0  0  0  0  0  0  0  0  0  0  0  0
  -23.9299   35.4927  -10.3049 H   0  0  0  0  0  0  0  0  0  0  0  0
  -24.0901   37.0191  -13.5025 H   0  0  0  0  0  0  0  0  0  0  0  0
  -24.9933   40.1251   -9.7820 H   0  0  0  0  0  0  0  0  0  0  0  0
  -24.1869   42.2884  -10.3320 H   0  0  0  0  0  0  0  0  0  0  0  0
  -24.4175   44.5661  -11.7472 H   0  0  0  0  0  0  0  0  0  0  0  0
  -24.9524   43.7894  -14.2667 H   0  0  0  0  0  0  0  0  0  0  0  0
  -23.9190   30.3948   -6.5243 H   0  0  0  0  0  0  0  0  0  0  0  0
  1  2  1  0
  2  3  1  0
  3  4  2  0
  4  5  1  0
  5  6  2  0
  6  7  1  0
  7  8  1  0
  8  9  1  0
  9 10  1  0
  9 11  1  0
 11 12  1  0
 12 13  1  0
 13 14  2  0
 14 15  1  0
 15 16  2  0
 16 17  1  0
 17 18  2  0
 13 18  1  0
 16 19  1  0
 19 20  1  0
 20 21  2  0
 21 22  1  0
 22 23  2  0
 19 23  1  0
  6 24  1  0
 24 25  2  0
  3 25  1  0
  1 26  1  0
  1 27  1  0
  1 28  1  0
  4 29  1  0
  7 30  1  0
  8 31  1  0
  8 32  1  0
  9 33  1  0
 10 34  1  0
 10 35  1  0
 10 36  1  0
 11 37  1  0
 11 38  1  0
 12 39  1  0
 14 40  1  0
 17 41  1  0
 20 42  1  0
 21 43  1  0
 22 44  1  0
 25 45  1  0
M  END
>  <21666828|PCSK9_Human_KD_nM_PREFIX|1>  (1) 
>=

>  <21666828|PCSK9_Human_KD_nM_REMARKS|1>  (1) 
Range >= 2000 nM to < 20000 nM

>  <21666828|PCSK9_Human_KD_nM|1>  (1) 
2000

>  <CHROM.1>  (1) 
-82.62895679,-166.84812219,179.75608380,66.77666427,-70.10222805,-116.35925770
-46.44417021,-157.13725951

>  <COMPOUND_ID>  (1) 
Example_214

>  <EmbedRMS>  (1) 
0.0751800033315243

>  <GVK_ID>  (1) 
124889557

>  <ISOMER>  (1) 
None

>  <Kd_Range>  (1) 
>= 2000

>  <Name>  (1) 


>  <PAGE>  (1) 
109

>  <REFERENCE>  (1) 
WO 2020/150474 A1

>  <REF_ID>  (1) 
2133368

>  <RI>  (1) 
1.85618e+07

>  <Rbt.Current_Directory>  (1) 
/dev/shm/dwight/Example-214

>  <Rbt.Executable>  (1) 
rbdock ($Id: //depot/dev/client3/rdock/2013.1/src/exe/rbdock.cxx#4 $)

>  <Rbt.Library>  (1) 
libRbt.so (2013.1, Build901 2013/11/27)

>  <Rbt.Parameter_File>  (1) 
dock.prm

>  <Rbt.Receptor>  (1) 
receptor.prm

>  <SCORE>  (1) 
4.68841

>  <SCORE.INTER>  (1) 
5.22668

>  <SCORE.INTER.CONST>  (1) 
1

>  <SCORE.INTER.POLAR>  (1) 
-2.44934

>  <SCORE.INTER.REPUL>  (1) 
0.0236648

>  <SCORE.INTER.ROT>  (1) 
8

>  <SCORE.INTER.VDW>  (1) 
0.0361029

>  <SCORE.INTER.norm>  (1) 
0.209067

>  <SCORE.INTRA>  (1) 
-0.53827

>  <SCORE.INTRA.DIHEDRAL>  (1) 
7.77192

>  <SCORE.INTRA.DIHEDRAL.0>  (1) 
9.22624

>  <SCORE.INTRA.POLAR>  (1) 
0

>  <SCORE.INTRA.POLAR.0>  (1) 
0

>  <SCORE.INTRA.REPUL>  (1) 
0

>  <SCORE.INTRA.REPUL.0>  (1) 
0

>  <SCORE.INTRA.VDW>  (1) 
-4.42423

>  <SCORE.INTRA.VDW.0>  (1) 
4.42431

>  <SCORE.INTRA.norm>  (1) 
-0.0215308

>  <SCORE.RESTR>  (1) 
0

>  <SCORE.RESTR.CAVITY>  (1) 
0

>  <SCORE.RESTR.norm>  (1) 
0

>  <SCORE.SYSTEM>  (1) 
0

>  <SCORE.SYSTEM.CONST>  (1) 
0

>  <SCORE.SYSTEM.DIHEDRAL>  (1) 
0

>  <SCORE.SYSTEM.norm>  (1) 
0

>  <SCORE.heavy>  (1) 
25

>  <SCORE.norm>  (1) 
0.187536

>  <TETHERED ATOMS>  (1) 
9,8,11,12,13,7,6

>  <_MOLCOUNT>  (1) 
1

$$$$
