
     RDKit          3D

 54 57  0  0  0  0  0  0  0  0999 V2000
  -25.1817   26.9492   -6.3709 C   0  0  0  0  0  0  0  0  0  0  0  0
  -25.4924   28.3362   -5.2348 S   0  0  0  0  0  0  0  0  0  0  0  0
  -25.8423   29.4972   -6.5564 C   0  0  0  0  0  0  0  0  0  0  0  0
  -24.8760   30.4108   -6.9792 C   0  0  0  0  0  0  0  0  0  0  0  0
  -25.1628   31.2848   -7.9784 N   0  0  0  0  0  0  0  0  0  0  0  0
  -26.3851   31.2894   -8.5787 C   0  0  0  0  0  0  0  0  0  0  0  0
  -26.6757   32.2137   -9.6307 N   0  0  0  0  0  0  0  0  0  0  0  0
  -25.6676   33.1488  -10.1291 C   0  0  0  0  0  0  0  0  0  0  0  0
  -26.2741   34.1119  -11.1620 C   0  0  0  0  0  0  0  0  0  0  0  0
  -27.3148   35.0473  -10.5279 C   0  0  0  0  0  0  0  0  0  0  0  0
  -25.1669   34.8490  -11.9386 C   0  0  0  0  0  0  0  0  0  0  0  0
  -24.4354   35.7844  -11.0908 N   0  0  0  0  0  0  0  0  0  0  0  0
  -24.6081   37.2008  -11.2060 C   0  0  0  0  0  0  0  0  0  0  0  0
  -24.1511   38.0911  -10.2906 N   0  0  0  0  0  0  0  0  0  0  0  0
  -24.4689   39.3588  -10.6553 C   0  0  0  0  0  0  0  0  0  0  0  0
  -25.1762   39.4732  -11.8406 C   0  0  0  0  0  0  0  0  0  0  0  0
  -25.4294   37.9440  -12.4860 S   0  0  0  0  0  0  0  0  0  0  0  0
  -25.5745   40.7060  -12.3489 C   0  0  0  0  0  0  0  0  0  0  0  0
  -25.2409   41.8695  -11.6256 C   0  0  0  0  0  0  0  0  0  0  0  0
  -24.5189   41.7550  -10.4133 C   0  0  0  0  0  0  0  0  0  0  0  0
  -24.1306   40.4964   -9.9245 C   0  0  0  0  0  0  0  0  0  0  0  0
  -25.6449   43.1995  -12.1301 C   0  0  0  0  0  0  0  0  0  0  0  0
  -24.9940   43.9971  -13.0563 C   0  0  0  0  0  0  0  0  0  0  0  0
  -23.7158   43.7040  -13.7721 C   0  0  0  0  0  0  0  0  0  0  0  0
  -25.6888   45.0990  -13.2215 O   0  0  0  0  0  0  0  0  0  0  0  0
  -26.7595   45.0991  -12.4809 N   0  0  0  0  0  0  0  0  0  0  0  0
  -26.7633   43.9432  -11.7886 C   0  0  0  0  0  0  0  0  0  0  0  0
  -27.8383   43.5674  -10.8202 C   0  0  0  0  0  0  0  0  0  0  0  0
  -27.3379   30.4068   -8.1743 N   0  0  0  0  0  0  0  0  0  0  0  0
  -27.0913   29.5164   -7.1787 C   0  0  0  0  0  0  0  0  0  0  0  0
  -24.7594   26.1120   -5.8152 H   0  0  0  0  0  0  0  0  0  0  0  0
  -26.1193   26.6419   -6.8340 H   0  0  0  0  0  0  0  0  0  0  0  0
  -24.4802   27.2629   -7.1439 H   0  0  0  0  0  0  0  0  0  0  0  0
  -23.8861   30.4423   -6.5238 H   0  0  0  0  0  0  0  0  0  0  0  0
  -27.6047   32.2058  -10.0269 H   0  0  0  0  0  0  0  0  0  0  0  0
  -25.3688   33.7440   -9.2662 H   0  0  0  0  0  0  0  0  0  0  0  0
  -24.9318   32.5357  -10.6495 H   0  0  0  0  0  0  0  0  0  0  0  0
  -26.8288   33.5272  -11.8959 H   0  0  0  0  0  0  0  0  0  0  0  0
  -27.2455   34.9850   -9.4419 H   0  0  0  0  0  0  0  0  0  0  0  0
  -27.1237   36.0722  -10.8460 H   0  0  0  0  0  0  0  0  0  0  0  0
  -28.3136   34.7484  -10.8460 H   0  0  0  0  0  0  0  0  0  0  0  0
  -24.4328   34.1021  -12.2410 H   0  0  0  0  0  0  0  0  0  0  0  0
  -25.6571   35.4672  -12.6908 H   0  0  0  0  0  0  0  0  0  0  0  0
  -23.7858   35.4387  -10.3988 H   0  0  0  0  0  0  0  0  0  0  0  0
  -26.1306   40.7586  -13.2848 H   0  0  0  0  0  0  0  0  0  0  0  0
  -24.2580   42.6495   -9.8477 H   0  0  0  0  0  0  0  0  0  0  0  0
  -23.5746   40.4039   -8.9915 H   0  0  0  0  0  0  0  0  0  0  0  0
  -22.9285   44.3544  -13.3909 H   0  0  0  0  0  0  0  0  0  0  0  0
  -23.4380   42.6628  -13.6081 H   0  0  0  0  0  0  0  0  0  0  0  0
  -23.8482   43.8810  -14.8395 H   0  0  0  0  0  0  0  0  0  0  0  0
  -27.7512   44.1820   -9.9241 H   0  0  0  0  0  0  0  0  0  0  0  0
  -28.8136   43.7300  -11.2789 H   0  0  0  0  0  0  0  0  0  0  0  0
  -27.7339   42.5162  -10.5513 H   0  0  0  0  0  0  0  0  0  0  0  0
  -27.8834   28.8282   -6.8836 H   0  0  0  0  0  0  0  0  0  0  0  0
  1  2  1  0
  2  3  1  0
  3  4  2  0
  4  5  1  0
  5  6  2  0
  6  7  1  0
  7  8  1  0
  8  9  1  0
  9 10  1  0
  9 11  1  0
 11 12  1  0
 12 13  1  0
 13 14  2  0
 14 15  1  0
 15 16  2  0
 16 17  1  0
 13 17  1  0
 16 18  1  0
 18 19  2  0
 19 20  1  0
 20 21  2  0
 15 21  1  0
 19 22  1  0
 22 23  2  0
 23 24  1  0
 23 25  1  0
 25 26  1  0
 26 27  2  0
 22 27  1  0
 27 28  1  0
  6 29  1  0
 29 30  2  0
  3 30  1  0
  1 31  1  0
  1 32  1  0
  1 33  1  0
  4 34  1  0
  7 35  1  0
  8 36  1  0
  8 37  1  0
  9 38  1  0
 10 39  1  0
 10 40  1  0
 10 41  1  0
 11 42  1  0
 11 43  1  0
 12 44  1  0
 18 45  1  0
 20 46  1  0
 21 47  1  0
 24 48  1  0
 24 49  1  0
 24 50  1  0
 28 51  1  0
 28 52  1  0
 28 53  1  0
 30 54  1  0
M  END
>  <21666828|PCSK9_Human_KD_nM_PREFIX|1>  (1) 
>=

>  <21666828|PCSK9_Human_KD_nM_REMARKS|1>  (1) 
Range >= 200 nM to < 2000 nM

>  <21666828|PCSK9_Human_KD_nM|1>  (1) 
200

>  <CHROM.1>  (1) 
-100.59345143,2.11534884,-174.72196303,66.11113587,-68.37350802,-106.98086979
167.22449681,-84.33515879

>  <COMPOUND_ID>  (1) 
Example_99

>  <EmbedRMS>  (1) 
0.07475345545445385

>  <GVK_ID>  (1) 
124889509

>  <ISOMER>  (1) 
None

>  <Kd_Range>  (1) 
>= 200

>  <Name>  (1) 


>  <PAGE>  (1) 
72

>  <REFERENCE>  (1) 
WO 2020/150474 A1

>  <REF_ID>  (1) 
2133368

>  <RI>  (1) 
2.01182e+07

>  <Rbt.Current_Directory>  (1) 
/dev/shm/dwight/Example-99

>  <Rbt.Executable>  (1) 
rbdock ($Id: //depot/dev/client3/rdock/2013.1/src/exe/rbdock.cxx#4 $)

>  <Rbt.Library>  (1) 
libRbt.so (2013.1, Build901 2013/11/27)

>  <Rbt.Parameter_File>  (1) 
dock.prm

>  <Rbt.Receptor>  (1) 
receptor.prm

>  <SCORE>  (1) 
1.44272

>  <SCORE.INTER>  (1) 
5.83583

>  <SCORE.INTER.CONST>  (1) 
1

>  <SCORE.INTER.POLAR>  (1) 
-2.12759

>  <SCORE.INTER.REPUL>  (1) 
0.534787

>  <SCORE.INTER.ROT>  (1) 
8

>  <SCORE.INTER.VDW>  (1) 
-3.0043

>  <SCORE.INTER.norm>  (1) 
0.194528

>  <SCORE.INTRA>  (1) 
-4.39311

>  <SCORE.INTRA.DIHEDRAL>  (1) 
3.79852

>  <SCORE.INTRA.DIHEDRAL.0>  (1) 
20.6787

>  <SCORE.INTRA.POLAR>  (1) 
0

>  <SCORE.INTRA.POLAR.0>  (1) 
0

>  <SCORE.INTRA.REPUL>  (1) 
0

>  <SCORE.INTRA.REPUL.0>  (1) 
0

>  <SCORE.INTRA.VDW>  (1) 
-6.29237

>  <SCORE.INTRA.VDW.0>  (1) 
5.67229

>  <SCORE.INTRA.norm>  (1) 
-0.146437

>  <SCORE.RESTR>  (1) 
0

>  <SCORE.RESTR.CAVITY>  (1) 
0

>  <SCORE.RESTR.norm>  (1) 
0

>  <SCORE.SYSTEM>  (1) 
0

>  <SCORE.SYSTEM.CONST>  (1) 
0

>  <SCORE.SYSTEM.DIHEDRAL>  (1) 
0

>  <SCORE.SYSTEM.norm>  (1) 
0

>  <SCORE.heavy>  (1) 
30

>  <SCORE.norm>  (1) 
0.0480906

>  <TETHERED ATOMS>  (1) 
9,8,11,12,13,7,6

>  <_MOLCOUNT>  (1) 
1

$$$$
